REMARK  15 active torsions:
REMARK  status: ('A' for Active; 'I' for Inactive)
REMARK    1  A    between atoms: CX_3  and  CX_2 
REMARK    2  A    between atoms: CX_2  and  CX_4 
REMARK    3  A    between atoms: CX_4  and  OX_6 
REMARK    4  A    between atoms: OX_6  and  CX_7 
REMARK    5  A    between atoms: CX_15  and  SG_48 
REMARK    6  A    between atoms: CX_17  and  OX_18 
REMARK    7  A    between atoms: CX_19  and  OX_20 
REMARK    8  A    between atoms: OX_20  and  CX_21 
REMARK    9  A    between atoms: CX_27  and  OX_28 
REMARK   10  A    between atoms: CX_30  and  OX_31 
REMARK   11  A    between atoms: OX_31  and  CX_32 
REMARK   12  A    between atoms: CX_37  and  OX_38 
REMARK   13  A    between atoms: OX_38  and  CX_39 
REMARK       I    between atoms: CA_46  and  C_49 
REMARK   14  A    between atoms: CA_46  and  CB_47 
REMARK   15  A    between atoms: CB_47  and  SG_48 
ROOT
HETATM    1  N   CYS A  91      90.107 101.410  84.877  1.00  0.00     0.625 N 
HETATM    2  CA  CYS A  91      90.769 102.529  84.264  1.00  0.00     0.376 C 
HETATM    3  C   CYS A  91      90.208 102.718  82.886  1.00  0.00     0.247 C 
HETATM    4  O   CYS A  91      90.626 102.063  81.932  1.00  0.00    -0.286 OA
ENDROOT
BRANCH   2   5
HETATM    5  CB  CYS A  91      92.286 102.312  84.119  1.00  0.00     0.105 C 
BRANCH   5   6
HETATM    6  SG  CYS A  91      93.137 103.718  83.346  1.00  0.00    -0.129 SA
BRANCH   6   7
HETATM    7  CX  LIG A  91      94.204 102.917  82.077  1.00  0.00     0.129 C 
HETATM    8  CX  LIG A  91      95.175 101.887  82.601  1.00  0.00     0.281 C 
HETATM    9  OX  LIG A  91      96.185 101.733  81.699  1.00  0.00    -0.307 OA
HETATM   10  OX  LIG A  91      95.073 101.193  83.598  1.00  0.00    -0.263 OA
HETATM   11  CX  LIG A  91      96.358 102.964  80.998  1.00  0.00     0.194 C 
HETATM   12  CX  LIG A  91      96.609 102.705  79.539  1.00  0.00     0.011 C 
HETATM   13  CX  LIG A  91      95.176 103.911  81.359  1.00  0.00     0.140 C 
HETATM   14  CX  LIG A  91      97.779 102.890  78.893  1.00  0.00    -0.082 C 
HETATM   15  CX  LIG A  91      99.090 103.249  79.578  1.00  0.00     0.068 C 
HETATM   16  CX  LIG A  91      97.865 102.679  77.402  1.00  0.00     0.043 C 
HETATM   17  CX  LIG A  91      99.320 104.764  79.826  1.00  0.00     0.166 C 
HETATM   18  CX  LIG A  91      99.259 105.277  81.313  1.00  0.00     0.172 C 
HETATM   19  CX  LIG A  91      98.211 106.429  81.685  1.00  0.00     0.019 C 
HETATM   20  CX  LIG A  91      96.677 106.119  81.289  1.00  0.00     0.038 C 
HETATM   21  CX  LIG A  91      98.685 107.743  80.947  1.00  0.00     0.145 C 
HETATM   22  CX  LIG A  91      98.407 106.712  83.207  1.00  0.00     0.021 C 
HETATM   23  CX  LIG A  91      95.771 105.147  82.191  1.00  0.00     0.176 C 
HETATM   24  CX  LIG A  91      95.917 107.449  80.793  1.00  0.00     0.018 C 
HETATM   25  CX  LIG A  91      94.380 107.455  80.765  1.00  0.00     0.013 C 
HETATM   26  CX  LIG A  91      96.392 108.747  81.472  1.00  0.00     0.124 C 
HETATM   27  CX  LIG A  91      97.901 108.980  81.413  1.00  0.00     0.065 C 
HETATM   28  CX  LIG A  91      93.278 102.170  81.086  1.00  0.00     0.041 C 
BRANCH  17  29
HETATM   29  OX  LIG A  91     100.688 105.065  79.400  1.00  0.00    -0.313 OA
BRANCH  29  30
HETATM   30  CX  LIG A  91     100.914 105.321  78.086  1.00  0.00     0.259 C 
HETATM   31  OX  LIG A  91     100.058 105.321  77.215  1.00  0.00    -0.265 OA
BRANCH  30  32
HETATM   32  CX  LIG A  91     102.377 105.646  77.886  1.00  0.00     0.111 C 
BRANCH  32  33
HETATM   33  CX  LIG A  91     102.768 105.774  76.416  1.00  0.00     0.005 C 
HETATM   34  CX  LIG A  91     102.844 104.427  75.712  1.00  0.00     0.005 C 
ENDBRANCH  32  33
ENDBRANCH  30  32
ENDBRANCH  29  30
ENDBRANCH  17  29
BRANCH  18  35
HETATM   35  OX  LIG A  91      99.141 104.190  82.262  1.00  0.00    -0.313 OA
BRANCH  35  36
HETATM   36  CX  LIG A  91     100.292 103.576  82.658  1.00  0.00     0.255 C 
HETATM   37  CX  LIG A  91      99.980 102.506  83.659  1.00  0.00     0.126 C 
HETATM   38  OX  LIG A  91     101.416 103.849  82.268  1.00  0.00    -0.266 OA
ENDBRANCH  35  36
ENDBRANCH  18  35
BRANCH  23  39
HETATM   39  OX  LIG A  91      96.460 104.591  83.331  1.00  0.00    -0.313 OA
BRANCH  39  40
HETATM   40  CX  LIG A  91      96.083 105.017  84.574  1.00  0.00     0.255 C 
HETATM   41  CX  LIG A  91      96.748 104.179  85.623  1.00  0.00     0.126 C 
HETATM   42  OX  LIG A  91      95.315 105.935  84.815  1.00  0.00    -0.266 OA
ENDBRANCH  39  40
ENDBRANCH  23  39
BRANCH  26  43
HETATM   43  OX  LIG A  91      95.946 108.744  82.822  1.00  0.00    -0.395 OA
HETATM   44  H   LIG A  91      96.350 108.000  83.295  1.00  0.00     0.210 HD
ENDBRANCH  26  43
BRANCH  21  45
HETATM   45  OX  LIG A  91      98.512 107.625  79.519  1.00  0.00    -0.315 OA
BRANCH  45  46
HETATM   46  CX  LIG A  91      99.360 108.327  78.720  1.00  0.00     0.255 C 
HETATM   47  CX  LIG A  91      98.910 108.264  77.292  1.00  0.00     0.126 C 
HETATM   48  OX  LIG A  91     100.328 108.964  79.108  1.00  0.00    -0.266 OA
ENDBRANCH  45  46
ENDBRANCH  21  45
BRANCH  13  49
HETATM   49  OX  LIG A  91      94.525 104.420  80.181  1.00  0.00    -0.382 OA
HETATM   50  H   LIG A  91      94.160 103.681  79.669  1.00  0.00     0.210 HD
ENDBRANCH  13  49
ENDBRANCH   6   7
ENDBRANCH   5   6
ENDBRANCH   2   5
TORSDOF 16
