MODEL 1
USER: ADFR SOLUTION from run 45
USER: SCORE 10.534301 LL:  -3.854 LR:  -6.538 RR:  -0.569 FEB:  -1.765
USER: RMSD -1
USER: STATUS searching
USER: GENES 31
USER: genes 0 Torsion [N]-CA--CB-[SG] |==|  0.57323
USER: genes 1 Torsion [CA]-CB--SG-[CX] |==|  0.27731
USER: genes 2 Torsion [CB]-SG--CX-[CX] |==|  0.87154
USER: genes 3 Torsion [CX]-CX--OX-[CX] |==|  0.98953
USER: genes 4 Torsion [CX]-OX--CX-[CX] |==|  0.68794
USER: genes 5 Torsion [OX]-CX--CX-[CX] |==|  0.95791
USER: genes 6 Torsion [CX]-CX--CX-[CX] |==|  0.57018
USER: genes 7 Torsion [CX]-CX--OX-[CX] |==|  0.27535
USER: genes 8 Torsion [CX]-OX--CX-[CX] |==|  0.71096
USER: genes 9 Torsion [CX]-CX--OX-[CX] |==|  0.66061
USER: genes 10 Torsion [CX]-OX--CX-[CX] |==|  0.57874
USER: genes 11 Torsion [CX]-CX--OX-[H] |==|  0.34069
USER: genes 12 Torsion [CX]-CX--OX-[CX] |==|  0.65097
USER: genes 13 Torsion [CX]-OX--CX-[CX] |==|  0.45044
USER: genes 14 Torsion [CX]-CX--OX-[H] |==|  0.57444
USER: genes 15 Torsion [N]-CA--CB-[CG] |==|  0.72338
USER: genes 16 Torsion [CA]-CB--CG-[CD] |==|  0.05980
USER: genes 17 Torsion [CB]-CG--CD-[NE] |==|  0.58728
USER: genes 18 Torsion [CG]-CD--NE-[CZ] |==|  0.39412
USER: genes 19 Torsion [N]-CA--CB-[CG] |==|  0.24420
USER: genes 20 Torsion [CA]-CB--CG-[CD] |==|  0.33490
USER: genes 21 Torsion [CB]-CG--CD-[NE] |==|  0.77477
USER: genes 22 Torsion [CG]-CD--NE-[CZ] |==|  0.34924
USER: genes 23 Torsion [N]-CA--CB-[CG] |==|  0.99772
USER: genes 24 Torsion [CA]-CB--CG-[CD] |==|  0.49383
USER: genes 25 Torsion [CB]-CG--CD-[NE] |==|  0.92721
USER: genes 26 Torsion [CG]-CD--NE-[CZ] |==|  0.80937
USER: genes 27 Torsion [N]-CA--CB-[CG] |==|  0.80151
USER: genes 28 Torsion [CA]-CB--CG-[CD] |==|  0.38086
USER: genes 29 Torsion [CB]-CG--CD-[NE] |==|  0.40136
USER: genes 30 Torsion [CG]-CD--NE-[CZ] |==|  0.73396
ROOT
ATOM      1  N   CYS A  91      90.107 101.410  84.877  1.00  0.00 LIG 0.62  N 
ATOM      2  CA  CYS A  91      90.769 102.529  84.264  1.00  0.00 LIG 0.38  C 
ATOM      3  C   CYS A  91      90.208 102.718  82.886  1.00  0.00 LIG 0.25  C 
ATOM      4 O    CYS A  91      90.626 102.063  81.932  1.00  0.00 LIG-0.29  OA
ENDROOT
BRANCH 2 5
ATOM      5  CB  CYS A  91      92.286 102.312  84.119  1.00  0.00 LIG 0.10  C 
BRANCH 5 6
ATOM      6 SG   CYS A  91      93.229 103.864  84.088  1.00  0.00 LIG-0.13  SA
BRANCH 6 7
ATOM      7  CX  LIG A  91      93.866 104.003  85.810  1.00  0.00 LIG 0.13  C 
ATOM      8  CX  LIG A  91      92.856 103.738  86.900  1.00  0.00 LIG 0.28  C 
ATOM      9 OX   LIG A  91      93.290 104.317  88.054  1.00  0.00 LIG-0.31  OA
ATOM     10 OX   LIG A  91      91.859 103.039  86.850  1.00  0.00 LIG-0.26  OA
ATOM     11  CX  LIG A  91      94.084 105.455  87.720  1.00  0.00 LIG 0.19  C 
ATOM     12  CX  LIG A  91      95.285 105.539  88.620  1.00  0.00 LIG 0.01  C 
ATOM     13  CX  LIG A  91      94.345 105.444  86.185  1.00  0.00 LIG 0.14  C 
ATOM     14  CX  LIG A  91      95.486 106.459  89.586  1.00  0.00 LIG-0.08  C 
ATOM     15  CX  LIG A  91      94.447 107.480  90.029  1.00  0.00 LIG 0.07  C 
ATOM     16  CX  LIG A  91      96.784 106.483  90.354  1.00  0.00 LIG 0.04  C 
ATOM     17  CX  LIG A  91      94.400 108.788  89.196  1.00  0.00 LIG 0.17  C 
ATOM     18  CX  LIG A  91      93.149 109.018  88.268  1.00  0.00 LIG 0.17  C 
ATOM     19  CX  LIG A  91      93.387 109.249  86.702  1.00  0.00 LIG 0.02  C 
ATOM     20  CX  LIG A  91      94.251 108.104  85.960  1.00  0.00 LIG 0.04  C 
ATOM     21  CX  LIG A  91      94.121 110.639  86.544  1.00  0.00 LIG 0.14  C 
ATOM     22  CX  LIG A  91      91.972 109.451  86.078  1.00  0.00 LIG 0.02  C 
ATOM     23  CX  LIG A  91      93.583 106.703  85.546  1.00  0.00 LIG 0.18  C 
ATOM     24  CX  LIG A  91      95.211 108.731  84.830  1.00  0.00 LIG 0.02  C 
ATOM     25  CX  LIG A  91      95.793 107.799  83.755  1.00  0.00 LIG 0.01  C 
ATOM     26  CX  LIG A  91      94.643 109.979  84.129  1.00  0.00 LIG 0.12  C 
ATOM     27  CX  LIG A  91      94.192 111.090  85.077  1.00  0.00 LIG 0.07  C 
ATOM     28  CX  LIG A  91      94.979 102.941  85.987  1.00  0.00 LIG 0.04  C 
BRANCH 17 29
ATOM     29 OX   LIG A  91      94.348 109.900  90.147  1.00  0.00 LIG-0.31  OA
BRANCH 29 30
ATOM     30  CX  LIG A  91      94.271 109.614  91.472  1.00  0.00 LIG 0.26  C 
ATOM     31 OX   LIG A  91      95.170 109.120  92.135  1.00  0.00 LIG-0.27  OA
BRANCH 30 32
ATOM     32  CX  LIG A  91      92.920 110.042  91.997  1.00  0.00 LIG 0.11  C 
BRANCH 32 33
ATOM     33  CX  LIG A  91      92.177 110.980  91.049  1.00  0.00 LIG 0.01  C 
ATOM     34  CX  LIG A  91      91.176 111.870  91.772  1.00  0.00 LIG 0.01  C 
ENDBRANCH 32 33
ENDBRANCH 30 32
ENDBRANCH 29 30
ENDBRANCH 17 29
BRANCH 18 35
ATOM     35 OX   LIG A  91      92.133 108.004  88.459  1.00  0.00 LIG-0.31  OA
BRANCH 35 36
ATOM     36  CX  LIG A  91      91.076 108.319  89.259  1.00  0.00 LIG 0.26  C 
ATOM     37  CX  LIG A  91      91.228 107.649  90.591  1.00  0.00 LIG 0.13  C 
ATOM     38 OX   LIG A  91      90.136 109.034  88.950  1.00  0.00 LIG-0.27  OA
ENDBRANCH 35 36
ENDBRANCH 18 35
BRANCH 23 39
ATOM     39 OX   LIG A  91      92.193 106.582  85.916  1.00  0.00 LIG-0.31  OA
BRANCH 39 40
ATOM     40  CX  LIG A  91      91.268 106.533  84.911  1.00  0.00 LIG 0.26  C 
ATOM     41  CX  LIG A  91      89.962 107.088  85.393  1.00  0.00 LIG 0.13  C 
ATOM     42 OX   LIG A  91      91.454 106.099  83.785  1.00  0.00 LIG-0.27  OA
ENDBRANCH 39 40
ENDBRANCH 23 39
BRANCH 26 43
ATOM     43 OX   LIG A  91      93.567 109.580  83.290  1.00  0.00 LIG-0.40  OA
ATOM     44 H    LIG A  91      92.764 110.061  83.543  1.00  0.00 LIG 0.21  HD
ENDBRANCH 26 43
BRANCH 21 45
ATOM     45 OX   LIG A  91      95.471 110.572  87.050  1.00  0.00 LIG-0.32  OA
BRANCH 45 46
ATOM     46  CX  LIG A  91      95.840 111.486  87.988  1.00  0.00 LIG 0.26  C 
ATOM     47  CX  LIG A  91      97.073 111.031  88.707  1.00  0.00 LIG 0.13  C 
ATOM     48 OX   LIG A  91      95.280 112.553  88.191  1.00  0.00 LIG-0.27  OA
ENDBRANCH 45 46
ENDBRANCH 21 45
BRANCH 13 49
ATOM     49 OX   LIG A  91      95.748 105.555  85.885  1.00  0.00 LIG-0.38  OA
ATOM     50 H    LIG A  91      96.150 106.223  86.462  1.00  0.00 LIG 0.21  HD
ENDBRANCH 13 49
ENDBRANCH 6 7
ENDBRANCH 5 6
ENDBRANCH 2 5
ATOM      1  N   ARG A  83      83.253 109.046  90.414  1.00 96.62 REC       N
ATOM      2  CA  ARG A  83      83.834 108.084  91.301  1.00 96.62 REC       C
ATOM      3  CB  ARG A  83      83.558 108.418  92.776  1.00 96.62 REC       C
ATOM      4  CG  ARG A  83      84.739 109.108  93.465  1.00 96.62 REC       C
ATOM      5  CD  ARG A  83      85.721 109.793  92.511  1.00 96.62 REC       C
ATOM      6  NE  ARG A  83      87.071 109.714  93.140  1.00 96.62 REC       N
ATOM      7  HE  ARG A  83      87.165 109.828  94.149  1.00  0.00 REC       H
ATOM      8  CZ  ARG A  83      88.182 109.492  92.378  1.00 96.62 REC       C
ATOM      9  NH1 ARG A  83      88.067 109.317  91.029  1.00 96.62 REC       N
ATOM     10 1HH1 ARG A  83      87.147 109.354  90.590  1.00  0.00 REC       H
ATOM     11 2HH1 ARG A  83      88.898 109.151  90.461  1.00  0.00 REC       H
ATOM     12  NH2 ARG A  83      89.412 109.444  92.967  1.00 96.62 REC       N
ATOM     13 1HH2 ARG A  83      89.498 109.574  93.975  1.00  0.00 REC       H
ATOM     14 2HH2 ARG A  83      90.242 109.278  92.398  1.00  0.00 REC       H
ATOM     15  N   ARG A  86      84.452 105.426  87.764  1.00122.64 REC       N
ATOM     16  CA  ARG A  86      85.847 105.107  87.799  1.00122.64 REC       C
ATOM     17  CB  ARG A  86      86.739 106.183  88.448  1.00122.64 REC       C
ATOM     18  CG  ARG A  86      86.922 106.085  89.962  1.00122.64 REC       C
ATOM     19  CD  ARG A  86      88.395 105.921  90.341  1.00122.64 REC       C
ATOM     20  NE  ARG A  86      88.763 104.490  90.172  1.00122.64 REC       N
ATOM     21  HE  ARG A  86      88.223 103.760  90.636  1.00  0.00 REC       H
ATOM     22  CZ  ARG A  86      89.832 104.167  89.387  1.00122.64 REC       C
ATOM     23  NH1 ARG A  86      90.552 105.153  88.778  1.00122.64 REC       N
ATOM     24 1HH1 ARG A  86      90.292 106.130  88.909  1.00  0.00 REC       H
ATOM     25 2HH1 ARG A  86      91.350 104.911  88.191  1.00  0.00 REC       H
ATOM     26  NH2 ARG A  86      90.180 102.860  89.212  1.00122.64 REC       N
ATOM     27 1HH2 ARG A  86      89.643 102.123  89.668  1.00  0.00 REC       H
ATOM     28 2HH2 ARG A  86      90.979 102.618  88.626  1.00  0.00 REC       H
ATOM     29  N   ARG A  94      92.572 103.846  79.741  1.00106.25 REC       N
ATOM     30  CA  ARG A  94      93.222 102.901  78.884  1.00106.25 REC       C
ATOM     31  CB  ARG A  94      93.777 101.680  79.639  1.00106.25 REC       C
ATOM     32  CG  ARG A  94      93.543 101.728  81.149  1.00106.25 REC       C
ATOM     33  CD  ARG A  94      94.049 100.487  81.885  1.00106.25 REC       C
ATOM     34  NE  ARG A  94      94.032  99.360  80.912  1.00106.25 REC       N
ATOM     35  HE  ARG A  94      94.910  98.958  80.582  1.00  0.00 REC       H
ATOM     36  CZ  ARG A  94      92.842  98.867  80.461  1.00106.25 REC       C
ATOM     37  NH1 ARG A  94      91.670  99.416  80.891  1.00106.25 REC       N
ATOM     38 1HH1 ARG A  94      91.683 100.193  81.552  1.00  0.00 REC       H
ATOM     39 2HH1 ARG A  94      90.781  99.047  80.555  1.00  0.00 REC       H
ATOM     40  NH2 ARG A  94      92.825  97.827  79.577  1.00106.25 REC       N
ATOM     41 1HH2 ARG A  94      93.701  97.416  79.255  1.00  0.00 REC       H
ATOM     42 2HH2 ARG A  94      91.936  97.457  79.240  1.00  0.00 REC       H
ATOM     43  N   ARG A  95      90.988 102.141  78.307  1.00 63.53 REC       N
ATOM     44  CA  ARG A  95      90.003 101.621  77.405  1.00 63.53 REC       C
ATOM     45  CB  ARG A  95      88.650 101.313  78.069  1.00 63.53 REC       C
ATOM     46  CG  ARG A  95      88.666 100.095  78.993  1.00 63.53 REC       C
ATOM     47  CD  ARG A  95      87.915 100.294  80.308  1.00 63.53 REC       C
ATOM     48  NE  ARG A  95      87.276  98.992  80.650  1.00 63.53 REC       N
ATOM     49  HE  ARG A  95      87.809  98.274  81.139  1.00  0.00 REC       H
ATOM     50  CZ  ARG A  95      85.975  98.765  80.305  1.00 63.53 REC       C
ATOM     51  NH1 ARG A  95      85.279  99.716  79.615  1.00 63.53 REC       N
ATOM     52 1HH1 ARG A  95      85.729 100.596  79.362  1.00  0.00 REC       H
ATOM     53 2HH1 ARG A  95      84.307  99.546  79.358  1.00  0.00 REC       H
ATOM     54  NH2 ARG A  95      85.374  97.587  80.644  1.00 63.53 REC       N
ATOM     55 1HH2 ARG A  95      85.894  96.877  81.159  1.00  0.00 REC       H
ATOM     56 2HH2 ARG A  95      84.402  97.418  80.387  1.00  0.00 REC       H
TORSDOF 16
ENDMDL
MODEL 2
USER: ADFR SOLUTION from run 95
USER: SCORE 10.678041 LL:  -4.106 LR:  -6.119 RR:  -1.809 FEB:  -1.347
USER: RMSD -1
USER: STATUS searching
USER: GENES 31
USER: genes 0 Torsion [N]-CA--CB-[SG] |==|  0.99011
USER: genes 1 Torsion [CA]-CB--SG-[CX] |==|  0.57692
USER: genes 2 Torsion [CB]-SG--CX-[CX] |==|  0.77165
USER: genes 3 Torsion [CX]-CX--OX-[CX] |==|  0.33855
USER: genes 4 Torsion [CX]-OX--CX-[CX] |==|  0.37136
USER: genes 5 Torsion [OX]-CX--CX-[CX] |==|  0.90144
USER: genes 6 Torsion [CX]-CX--CX-[CX] |==|  0.63220
USER: genes 7 Torsion [CX]-CX--OX-[CX] |==|  0.21787
USER: genes 8 Torsion [CX]-OX--CX-[CX] |==|  0.07621
USER: genes 9 Torsion [CX]-CX--OX-[CX] |==|  0.69854
USER: genes 10 Torsion [CX]-OX--CX-[CX] |==|  0.86313
USER: genes 11 Torsion [CX]-CX--OX-[H] |==|  0.65539
USER: genes 12 Torsion [CX]-CX--OX-[CX] |==|  0.48487
USER: genes 13 Torsion [CX]-OX--CX-[CX] |==|  0.60400
USER: genes 14 Torsion [CX]-CX--OX-[H] |==|  0.56815
USER: genes 15 Torsion [N]-CA--CB-[CG] |==|  0.82592
USER: genes 16 Torsion [CA]-CB--CG-[CD] |==|  0.91504
USER: genes 17 Torsion [CB]-CG--CD-[NE] |==|  0.34616
USER: genes 18 Torsion [CG]-CD--NE-[CZ] |==|  0.30092
USER: genes 19 Torsion [N]-CA--CB-[CG] |==|  0.19498
USER: genes 20 Torsion [CA]-CB--CG-[CD] |==|  0.25469
USER: genes 21 Torsion [CB]-CG--CD-[NE] |==|  0.42301
USER: genes 22 Torsion [CG]-CD--NE-[CZ] |==|  0.22208
USER: genes 23 Torsion [N]-CA--CB-[CG] |==|  0.52817
USER: genes 24 Torsion [CA]-CB--CG-[CD] |==|  0.54572
USER: genes 25 Torsion [CB]-CG--CD-[NE] |==|  0.82642
USER: genes 26 Torsion [CG]-CD--NE-[CZ] |==|  0.62427
USER: genes 27 Torsion [N]-CA--CB-[CG] |==|  0.71441
USER: genes 28 Torsion [CA]-CB--CG-[CD] |==|  0.32342
USER: genes 29 Torsion [CB]-CG--CD-[NE] |==|  0.84438
USER: genes 30 Torsion [CG]-CD--NE-[CZ] |==|  0.70707
ROOT
ATOM      1  N   CYS A  91      90.107 101.410  84.877  1.00  0.00 LIG 0.62  N 
ATOM      2  CA  CYS A  91      90.769 102.529  84.264  1.00  0.00 LIG 0.38  C 
ATOM      3  C   CYS A  91      90.208 102.718  82.886  1.00  0.00 LIG 0.25  C 
ATOM      4 O    CYS A  91      90.626 102.063  81.932  1.00  0.00 LIG-0.29  OA
ENDROOT
BRANCH 2 5
ATOM      5  CB  CYS A  91      92.286 102.312  84.119  1.00  0.00 LIG 0.10  C 
BRANCH 5 6
ATOM      6 SG   CYS A  91      92.856 100.750  84.850  1.00  0.00 LIG-0.13  SA
BRANCH 6 7
ATOM      7  CX  LIG A  91      94.601 101.115  85.311  1.00  0.00 LIG 0.13  C 
ATOM      8  CX  LIG A  91      95.607 100.995  84.192  1.00  0.00 LIG 0.28  C 
ATOM      9 OX   LIG A  91      96.847 100.817  84.730  1.00  0.00 LIG-0.31  OA
ATOM     10 OX   LIG A  91      95.425 101.139  82.996  1.00  0.00 LIG-0.26  OA
ATOM     11  CX  LIG A  91      96.705 100.152  85.985  1.00  0.00 LIG 0.19  C 
ATOM     12  CX  LIG A  91      97.648 100.737  86.998  1.00  0.00 LIG 0.01  C 
ATOM     13  CX  LIG A  91      95.194 100.115  86.358  1.00  0.00 LIG 0.14  C 
ATOM     14  CX  LIG A  91      98.742 100.130  87.503  1.00  0.00 LIG-0.08  C 
ATOM     15  CX  LIG A  91      99.289  98.798  87.010  1.00  0.00 LIG 0.07  C 
ATOM     16  CX  LIG A  91      99.549 100.799  88.587  1.00  0.00 LIG 0.04  C 
ATOM     17  CX  LIG A  91      98.649  97.536  87.648  1.00  0.00 LIG 0.17  C 
ATOM     18  CX  LIG A  91      97.721  96.649  86.737  1.00  0.00 LIG 0.17  C 
ATOM     19  CX  LIG A  91      96.212  96.386  87.204  1.00  0.00 LIG 0.02  C 
ATOM     20  CX  LIG A  91      95.345  97.712  87.514  1.00  0.00 LIG 0.04  C 
ATOM     21  CX  LIG A  91      96.279  95.490  88.504  1.00  0.00 LIG 0.14  C 
ATOM     22  CX  LIG A  91      95.575  95.479  86.105  1.00  0.00 LIG 0.02  C 
ATOM     23  CX  LIG A  91      94.714  98.584  86.323  1.00  0.00 LIG 0.18  C 
ATOM     24  CX  LIG A  91      94.349  97.485  88.759  1.00  0.00 LIG 0.02  C 
ATOM     25  CX  LIG A  91      93.173  98.457  88.950  1.00  0.00 LIG 0.01  C 
ATOM     26  CX  LIG A  91      93.814  96.048  88.896  1.00  0.00 LIG 0.12  C 
ATOM     27  CX  LIG A  91      94.894  94.967  88.915  1.00  0.00 LIG 0.07  C 
ATOM     28  CX  LIG A  91      94.664 102.586  85.791  1.00  0.00 LIG 0.04  C 
BRANCH 17 29
ATOM     29 OX   LIG A  91      99.746  96.640  88.019  1.00  0.00 LIG-0.31  OA
BRANCH 29 30
ATOM     30  CX  LIG A  91      99.861  96.265  89.319  1.00  0.00 LIG 0.26  C 
ATOM     31 OX   LIG A  91      99.758  97.015  90.277  1.00  0.00 LIG-0.27  OA
BRANCH 30 32
ATOM     32  CX  LIG A  91     100.094  94.772  89.387  1.00  0.00 LIG 0.11  C 
BRANCH 32 33
ATOM     33  CX  LIG A  91      99.340  93.997  88.309  1.00  0.00 LIG 0.01  C 
ATOM     34  CX  LIG A  91      98.598  92.792  88.868  1.00  0.00 LIG 0.01  C 
ENDBRANCH 32 33
ENDBRANCH 30 32
ENDBRANCH 29 30
ENDBRANCH 17 29
BRANCH 18 35
ATOM     35 OX   LIG A  91      97.731  97.086  85.356  1.00  0.00 LIG-0.31  OA
BRANCH 35 36
ATOM     36  CX  LIG A  91      98.802  96.728  84.593  1.00  0.00 LIG 0.26  C 
ATOM     37  CX  LIG A  91      99.395  95.454  85.114  1.00  0.00 LIG 0.13  C 
ATOM     38 OX   LIG A  91      99.230  97.344  83.630  1.00  0.00 LIG-0.27  OA
ENDBRANCH 35 36
ENDBRANCH 18 35
BRANCH 23 39
ATOM     39 OX   LIG A  91      95.015  98.082  85.003  1.00  0.00 LIG-0.31  OA
BRANCH 39 40
ATOM     40  CX  LIG A  91      93.969  97.850  84.155  1.00  0.00 LIG 0.26  C 
ATOM     41  CX  LIG A  91      92.917  97.042  84.852  1.00  0.00 LIG 0.13  C 
ATOM     42 OX   LIG A  91      93.887  98.229  82.997  1.00  0.00 LIG-0.27  OA
ENDBRANCH 39 40
ENDBRANCH 23 39
BRANCH 26 43
ATOM     43 OX   LIG A  91      92.890  95.804  87.843  1.00  0.00 LIG-0.40  OA
ATOM     44 H    LIG A  91      92.040  95.525  88.217  1.00  0.00 LIG 0.21  HD
ENDBRANCH 26 43
BRANCH 21 45
ATOM     45 OX   LIG A  91      96.816  96.234  89.617  1.00  0.00 LIG-0.32  OA
BRANCH 45 46
ATOM     46  CX  LIG A  91      96.829  95.628  90.835  1.00  0.00 LIG 0.26  C 
ATOM     47  CX  LIG A  91      96.520  96.617  91.918  1.00  0.00 LIG 0.13  C 
ATOM     48 OX   LIG A  91      97.016  94.436  91.026  1.00  0.00 LIG-0.27  OA
ENDBRANCH 45 46
ENDBRANCH 21 45
BRANCH 13 49
ATOM     49 OX   LIG A  91      94.960 100.639  87.678  1.00  0.00 LIG-0.38  OA
ATOM     50 H    LIG A  91      95.619 100.276  88.291  1.00  0.00 LIG 0.21  HD
ENDBRANCH 13 49
ENDBRANCH 6 7
ENDBRANCH 5 6
ENDBRANCH 2 5
ATOM      1  N   ARG A  83      83.253 109.046  90.414  1.00 96.62 REC       N
ATOM      2  CA  ARG A  83      83.834 108.084  91.301  1.00 96.62 REC       C
ATOM      3  CB  ARG A  83      83.558 108.418  92.776  1.00 96.62 REC       C
ATOM      4  CG  ARG A  83      84.173 109.751  93.214  1.00 96.62 REC       C
ATOM      5  CD  ARG A  83      85.461 110.129  92.479  1.00 96.62 REC       C
ATOM      6  NE  ARG A  83      85.247 111.479  91.883  1.00 96.62 REC       N
ATOM      7  HE  ARG A  83      84.621 111.586  91.085  1.00  0.00 REC       H
ATOM      8  CZ  ARG A  83      85.881 112.575  92.395  1.00 96.62 REC       C
ATOM      9  NH1 ARG A  83      86.705 112.449  93.476  1.00 96.62 REC       N
ATOM     10 1HH1 ARG A  83      86.848 111.533  93.901  1.00  0.00 REC       H
ATOM     11 2HH1 ARG A  83      87.179 113.268  93.858  1.00  0.00 REC       H
ATOM     12  NH2 ARG A  83      85.690 113.800  91.826  1.00 96.62 REC       N
ATOM     13 1HH2 ARG A  83      85.074 113.894  91.019  1.00  0.00 REC       H
ATOM     14 2HH2 ARG A  83      86.163 114.618  92.208  1.00  0.00 REC       H
ATOM     15  N   ARG A  86      84.452 105.426  87.764  1.00122.64 REC       N
ATOM     16  CA  ARG A  86      85.847 105.107  87.799  1.00122.64 REC       C
ATOM     17  CB  ARG A  86      86.739 106.183  88.448  1.00122.64 REC       C
ATOM     18  CG  ARG A  86      86.598 106.355  89.960  1.00122.64 REC       C
ATOM     19  CD  ARG A  86      87.594 105.480  90.722  1.00122.64 REC       C
ATOM     20  NE  ARG A  86      87.891 106.136  92.023  1.00122.64 REC       N
ATOM     21  HE  ARG A  86      88.746 106.679  92.145  1.00  0.00 REC       H
ATOM     22  CZ  ARG A  86      87.004 106.004  93.052  1.00122.64 REC       C
ATOM     23  NH1 ARG A  86      85.867 105.269  92.880  1.00122.64 REC       N
ATOM     24 1HH1 ARG A  86      85.681 104.819  91.984  1.00  0.00 REC       H
ATOM     25 2HH1 ARG A  86      85.204 105.171  93.649  1.00  0.00 REC       H
ATOM     26  NH2 ARG A  86      87.253 106.606  94.250  1.00122.64 REC       N
ATOM     27 1HH2 ARG A  86      88.103 107.154  94.379  1.00  0.00 REC       H
ATOM     28 2HH2 ARG A  86      86.590 106.507  95.019  1.00  0.00 REC       H
ATOM     29  N   ARG A  94      92.572 103.846  79.741  1.00106.25 REC       N
ATOM     30  CA  ARG A  94      93.222 102.901  78.884  1.00106.25 REC       C
ATOM     31  CB  ARG A  94      93.777 101.680  79.639  1.00106.25 REC       C
ATOM     32  CG  ARG A  94      94.681 100.786  78.789  1.00106.25 REC       C
ATOM     33  CD  ARG A  94      94.905  99.398  79.389  1.00106.25 REC       C
ATOM     34  NE  ARG A  94      95.597  99.588  80.694  1.00106.25 REC       N
ATOM     35  HE  ARG A  94      95.278 100.310  81.341  1.00  0.00 REC       H
ATOM     36  CZ  ARG A  94      96.659  98.796  81.024  1.00106.25 REC       C
ATOM     37  NH1 ARG A  94      97.093  97.841  80.152  1.00106.25 REC       N
ATOM     38 1HH1 ARG A  94      96.623  97.717  79.255  1.00  0.00 REC       H
ATOM     39 2HH1 ARG A  94      97.886  97.249  80.398  1.00  0.00 REC       H
ATOM     40  NH2 ARG A  94      97.288  98.962  82.224  1.00106.25 REC       N
ATOM     41 1HH2 ARG A  94      96.964  99.675  82.876  1.00  0.00 REC       H
ATOM     42 2HH2 ARG A  94      98.081  98.369  82.471  1.00  0.00 REC       H
ATOM     43  N   ARG A  95      90.988 102.141  78.307  1.00 63.53 REC       N
ATOM     44  CA  ARG A  95      90.003 101.621  77.405  1.00 63.53 REC       C
ATOM     45  CB  ARG A  95      88.650 101.313  78.069  1.00 63.53 REC       C
ATOM     46  CG  ARG A  95      88.406  99.828  78.338  1.00 63.53 REC       C
ATOM     47  CD  ARG A  95      88.277  99.470  79.818  1.00 63.53 REC       C
ATOM     48  NE  ARG A  95      89.515  99.950  80.494  1.00 63.53 REC       N
ATOM     49  HE  ARG A  95      89.649 100.946  80.669  1.00  0.00 REC       H
ATOM     50  CZ  ARG A  95      90.469  99.053  80.877  1.00 63.53 REC       C
ATOM     51  NH1 ARG A  95      90.303  97.725  80.604  1.00 63.53 REC       N
ATOM     52 1HH1 ARG A  95      89.464  97.404  80.119  1.00  0.00 REC       H
ATOM     53 2HH1 ARG A  95      91.016  97.055  80.890  1.00  0.00 REC       H
ATOM     54  NH2 ARG A  95      91.590  99.483  81.526  1.00 63.53 REC       N
ATOM     55 1HH2 ARG A  95      91.715 100.474  81.730  1.00  0.00 REC       H
ATOM     56 2HH2 ARG A  95      92.303  98.812  81.813  1.00  0.00 REC       H
TORSDOF 16
ENDMDL
MODEL 3
USER: ADFR SOLUTION from run 24
USER: SCORE 10.633158 LL:  -4.080 LR:  -6.057 RR:  -1.986 FEB:  -1.284
USER: RMSD -1
USER: STATUS searching
USER: GENES 31
USER: genes 0 Torsion [N]-CA--CB-[SG] |==|  0.06729
USER: genes 1 Torsion [CA]-CB--SG-[CX] |==|  0.58192
USER: genes 2 Torsion [CB]-SG--CX-[CX] |==|  0.61340
USER: genes 3 Torsion [CX]-CX--OX-[CX] |==|  0.66368
USER: genes 4 Torsion [CX]-OX--CX-[CX] |==|  0.29217
USER: genes 5 Torsion [OX]-CX--CX-[CX] |==|  0.02667
USER: genes 6 Torsion [CX]-CX--CX-[CX] |==|  0.54287
USER: genes 7 Torsion [CX]-CX--OX-[CX] |==|  0.30833
USER: genes 8 Torsion [CX]-OX--CX-[CX] |==|  0.56790
USER: genes 9 Torsion [CX]-CX--OX-[CX] |==|  0.69766
USER: genes 10 Torsion [CX]-OX--CX-[CX] |==|  0.89067
USER: genes 11 Torsion [CX]-CX--OX-[H] |==|  0.45116
USER: genes 12 Torsion [CX]-CX--OX-[CX] |==|  0.62865
USER: genes 13 Torsion [CX]-OX--CX-[CX] |==|  0.43904
USER: genes 14 Torsion [CX]-CX--OX-[H] |==|  0.56857
USER: genes 15 Torsion [N]-CA--CB-[CG] |==|  0.81682
USER: genes 16 Torsion [CA]-CB--CG-[CD] |==|  0.88961
USER: genes 17 Torsion [CB]-CG--CD-[NE] |==|  0.34163
USER: genes 18 Torsion [CG]-CD--NE-[CZ] |==|  0.36318
USER: genes 19 Torsion [N]-CA--CB-[CG] |==|  0.13688
USER: genes 20 Torsion [CA]-CB--CG-[CD] |==|  0.32094
USER: genes 21 Torsion [CB]-CG--CD-[NE] |==|  0.68306
USER: genes 22 Torsion [CG]-CD--NE-[CZ] |==|  0.48835
USER: genes 23 Torsion [N]-CA--CB-[CG] |==|  0.52153
USER: genes 24 Torsion [CA]-CB--CG-[CD] |==|  0.61296
USER: genes 25 Torsion [CB]-CG--CD-[NE] |==|  0.77312
USER: genes 26 Torsion [CG]-CD--NE-[CZ] |==|  0.70250
USER: genes 27 Torsion [N]-CA--CB-[CG] |==|  0.80930
USER: genes 28 Torsion [CA]-CB--CG-[CD] |==|  0.08843
USER: genes 29 Torsion [CB]-CG--CD-[NE] |==|  0.57448
USER: genes 30 Torsion [CG]-CD--NE-[CZ] |==|  0.56170
ROOT
ATOM      1  N   CYS A  91      90.107 101.410  84.877  1.00  0.00 LIG 0.62  N 
ATOM      2  CA  CYS A  91      90.769 102.529  84.264  1.00  0.00 LIG 0.38  C 
ATOM      3  C   CYS A  91      90.208 102.718  82.886  1.00  0.00 LIG 0.25  C 
ATOM      4 O    CYS A  91      90.626 102.063  81.932  1.00  0.00 LIG-0.29  OA
ENDROOT
BRANCH 2 5
ATOM      5  CB  CYS A  91      92.286 102.312  84.119  1.00  0.00 LIG 0.10  C 
BRANCH 5 6
ATOM      6 SG   CYS A  91      92.755 100.558  84.078  1.00  0.00 LIG-0.13  SA
BRANCH 6 7
ATOM      7  CX  LIG A  91      94.448 100.559  84.802  1.00  0.00 LIG 0.13  C 
ATOM      8  CX  LIG A  91      95.444  99.648  84.126  1.00  0.00 LIG 0.28  C 
ATOM      9 OX   LIG A  91      96.457  99.378  84.997  1.00  0.00 LIG-0.31  OA
ATOM     10 OX   LIG A  91      95.457  99.273  82.967  1.00  0.00 LIG-0.26  OA
ATOM     11  CX  LIG A  91      95.941  99.438  86.326  1.00  0.00 LIG 0.19  C 
ATOM     12  CX  LIG A  91      96.924 100.114  87.240  1.00  0.00 LIG 0.01  C 
ATOM     13  CX  LIG A  91      94.500 100.025  86.272  1.00  0.00 LIG 0.14  C 
ATOM     14  CX  LIG A  91      97.643  99.513  88.211  1.00  0.00 LIG-0.08  C 
ATOM     15  CX  LIG A  91      97.689  98.009  88.439  1.00  0.00 LIG 0.07  C 
ATOM     16  CX  LIG A  91      98.525 100.332  89.119  1.00  0.00 LIG 0.04  C 
ATOM     17  CX  LIG A  91      96.552  97.433  89.325  1.00  0.00 LIG 0.17  C 
ATOM     18  CX  LIG A  91      95.457  96.547  88.622  1.00  0.00 LIG 0.17  C 
ATOM     19  CX  LIG A  91      93.922  96.987  88.740  1.00  0.00 LIG 0.02  C 
ATOM     20  CX  LIG A  91      93.600  98.497  88.269  1.00  0.00 LIG 0.04  C 
ATOM     21  CX  LIG A  91      93.505  96.812  90.254  1.00  0.00 LIG 0.14  C 
ATOM     22  CX  LIG A  91      93.107  95.912  87.957  1.00  0.00 LIG 0.02  C 
ATOM     23  CX  LIG A  91      93.479  98.868  86.711  1.00  0.00 LIG 0.18  C 
ATOM     24  CX  LIG A  91      92.468  99.172  89.193  1.00  0.00 LIG 0.02  C 
ATOM     25  CX  LIG A  91      91.739 100.422  88.674  1.00  0.00 LIG 0.01  C 
ATOM     26  CX  LIG A  91      91.413  98.189  89.734  1.00  0.00 LIG 0.12  C 
ATOM     27  CX  LIG A  91      91.990  96.972  90.456  1.00  0.00 LIG 0.07  C 
ATOM     28  CX  LIG A  91      95.017 101.993  84.669  1.00  0.00 LIG 0.04  C 
BRANCH 17 29
ATOM     29 OX   LIG A  91      97.178  96.529  90.291  1.00  0.00 LIG-0.31  OA
BRANCH 29 30
ATOM     30  CX  LIG A  91      96.786  95.229  90.307  1.00  0.00 LIG 0.26  C 
ATOM     31 OX   LIG A  91      95.718  94.825  90.739  1.00  0.00 LIG-0.27  OA
BRANCH 30 32
ATOM     32  CX  LIG A  91      97.860  94.377  89.670  1.00  0.00 LIG 0.11  C 
BRANCH 32 33
ATOM     33  CX  LIG A  91      99.155  95.141  89.405  1.00  0.00 LIG 0.01  C 
ATOM     34  CX  LIG A  91     100.080  94.408  88.444  1.00  0.00 LIG 0.01  C 
ENDBRANCH 32 33
ENDBRANCH 30 32
ENDBRANCH 29 30
ENDBRANCH 17 29
BRANCH 18 35
ATOM     35 OX   LIG A  91      95.779  96.277  87.237  1.00  0.00 LIG-0.31  OA
BRANCH 35 36
ATOM     36  CX  LIG A  91      96.109  94.996  86.908  1.00  0.00 LIG 0.26  C 
ATOM     37  CX  LIG A  91      96.953  94.990  85.670  1.00  0.00 LIG 0.13  C 
ATOM     38 OX   LIG A  91      95.772  93.994  87.518  1.00  0.00 LIG-0.27  OA
ENDBRANCH 35 36
ENDBRANCH 18 35
BRANCH 23 39
ATOM     39 OX   LIG A  91      93.703  97.753  85.822  1.00  0.00 LIG-0.31  OA
BRANCH 39 40
ATOM     40  CX  LIG A  91      92.740  97.476  84.892  1.00  0.00 LIG 0.26  C 
ATOM     41  CX  LIG A  91      91.381  97.662  85.495  1.00  0.00 LIG 0.13  C 
ATOM     42 OX   LIG A  91      92.936  97.121  83.741  1.00  0.00 LIG-0.27  OA
ENDBRANCH 39 40
ENDBRANCH 23 39
BRANCH 26 43
ATOM     43 OX   LIG A  91      90.582  97.775  88.656  1.00  0.00 LIG-0.40  OA
ATOM     44 H    LIG A  91      90.106  96.968  88.906  1.00  0.00 LIG 0.21  HD
ENDBRANCH 26 43
BRANCH 21 45
ATOM     45 OX   LIG A  91      94.165  97.788  91.088  1.00  0.00 LIG-0.32  OA
BRANCH 45 46
ATOM     46  CX  LIG A  91      94.736  97.349  92.242  1.00  0.00 LIG 0.26  C 
ATOM     47  CX  LIG A  91      95.792  98.307  92.703  1.00  0.00 LIG 0.13  C 
ATOM     48 OX   LIG A  91      94.408  96.342  92.852  1.00  0.00 LIG-0.27  OA
ENDBRANCH 45 46
ENDBRANCH 21 45
BRANCH 13 49
ATOM     49 OX   LIG A  91      94.347 101.139  87.171  1.00  0.00 LIG-0.38  OA
ATOM     50 H    LIG A  91      94.750 100.922  88.026  1.00  0.00 LIG 0.21  HD
ENDBRANCH 13 49
ENDBRANCH 6 7
ENDBRANCH 5 6
ENDBRANCH 2 5
ATOM      1  N   ARG A  83      83.253 109.046  90.414  1.00 96.62 REC       N
ATOM      2  CA  ARG A  83      83.834 108.084  91.301  1.00 96.62 REC       C
ATOM      3  CB  ARG A  83      83.558 108.418  92.776  1.00 96.62 REC       C
ATOM      4  CG  ARG A  83      84.239 109.711  93.235  1.00 96.62 REC       C
ATOM      5  CD  ARG A  83      85.654 109.914  92.686  1.00 96.62 REC       C
ATOM      6  NE  ARG A  83      85.661 111.219  91.964  1.00 96.62 REC       N
ATOM      7  HE  ARG A  83      84.930 111.423  91.283  1.00  0.00 REC       H
ATOM      8  CZ  ARG A  83      86.637 112.143  92.206  1.00 96.62 REC       C
ATOM      9  NH1 ARG A  83      87.609 111.890  93.130  1.00 96.62 REC       N
ATOM     10 1HH1 ARG A  83      87.606 111.007  93.641  1.00  0.00 REC       H
ATOM     11 2HH1 ARG A  83      88.338 112.581  93.310  1.00  0.00 REC       H
ATOM     12  NH2 ARG A  83      86.641 113.324  91.522  1.00 96.62 REC       N
ATOM     13 1HH2 ARG A  83      85.914 113.513  90.832  1.00  0.00 REC       H
ATOM     14 2HH2 ARG A  83      87.369 114.014  91.702  1.00  0.00 REC       H
ATOM     15  N   ARG A  86      84.452 105.426  87.764  1.00122.64 REC       N
ATOM     16  CA  ARG A  86      85.847 105.107  87.799  1.00122.64 REC       C
ATOM     17  CB  ARG A  86      86.739 106.183  88.448  1.00122.64 REC       C
ATOM     18  CG  ARG A  86      86.282 106.709  89.808  1.00122.64 REC       C
ATOM     19  CD  ARG A  86      87.282 106.359  90.912  1.00122.64 REC       C
ATOM     20  NE  ARG A  86      86.624 105.412  91.852  1.00122.64 REC       N
ATOM     21  HE  ARG A  86      85.644 105.160  91.730  1.00  0.00 REC       H
ATOM     22  CZ  ARG A  86      87.351 104.885  92.881  1.00122.64 REC       C
ATOM     23  NH1 ARG A  86      88.660 105.235  93.039  1.00122.64 REC       N
ATOM     24 1HH1 ARG A  86      89.095 105.891  92.391  1.00  0.00 REC       H
ATOM     25 2HH1 ARG A  86      89.202 104.841  93.808  1.00  0.00 REC       H
ATOM     26  NH2 ARG A  86      86.769 104.008  93.748  1.00122.64 REC       N
ATOM     27 1HH2 ARG A  86      85.790 103.746  93.630  1.00  0.00 REC       H
ATOM     28 2HH2 ARG A  86      87.311 103.614  94.517  1.00  0.00 REC       H
ATOM     29  N   ARG A  94      92.572 103.846  79.741  1.00106.25 REC       N
ATOM     30  CA  ARG A  94      93.222 102.901  78.884  1.00106.25 REC       C
ATOM     31  CB  ARG A  94      93.777 101.680  79.639  1.00106.25 REC       C
ATOM     32  CG  ARG A  94      94.634 100.755  78.774  1.00106.25 REC       C
ATOM     33  CD  ARG A  94      94.387  99.270  79.038  1.00106.25 REC       C
ATOM     34  NE  ARG A  94      95.181  98.899  80.243  1.00106.25 REC       N
ATOM     35  HE  ARG A  94      94.883  99.213  81.167  1.00  0.00 REC       H
ATOM     36  CZ  ARG A  94      96.307  98.139  80.110  1.00106.25 REC       C
ATOM     37  NH1 ARG A  94      96.712  97.733  78.873  1.00106.25 REC       N
ATOM     38 1HH1 ARG A  94      96.173  97.994  78.047  1.00  0.00 REC       H
ATOM     39 2HH1 ARG A  94      97.554  97.165  78.773  1.00  0.00 REC       H
ATOM     40  NH2 ARG A  94      97.029  97.790  81.215  1.00106.25 REC       N
ATOM     41 1HH2 ARG A  94      96.726  98.093  82.140  1.00  0.00 REC       H
ATOM     42 2HH2 ARG A  94      97.870  97.221  81.115  1.00  0.00 REC       H
ATOM     43  N   ARG A  95      90.988 102.141  78.307  1.00 63.53 REC       N
ATOM     44  CA  ARG A  95      90.003 101.621  77.405  1.00 63.53 REC       C
ATOM     45  CB  ARG A  95      88.650 101.313  78.069  1.00 63.53 REC       C
ATOM     46  CG  ARG A  95      88.682 100.136  79.044  1.00 63.53 REC       C
ATOM     47  CD  ARG A  95      90.013  99.961  79.774  1.00 63.53 REC       C
ATOM     48  NE  ARG A  95      90.133  98.519  80.129  1.00 63.53 REC       N
ATOM     49  HE  ARG A  95      89.601  97.820  79.611  1.00  0.00 REC       H
ATOM     50  CZ  ARG A  95      90.956  98.138  81.149  1.00 63.53 REC       C
ATOM     51  NH1 ARG A  95      91.634  99.083  81.864  1.00 63.53 REC       N
ATOM     52 1HH1 ARG A  95      91.529 100.072  81.634  1.00  0.00 REC       H
ATOM     53 2HH1 ARG A  95      92.249  98.799  82.626  1.00  0.00 REC       H
ATOM     54  NH2 ARG A  95      91.095  96.816  81.457  1.00 63.53 REC       N
ATOM     55 1HH2 ARG A  95      90.588  96.110  80.923  1.00  0.00 REC       H
ATOM     56 2HH2 ARG A  95      91.710  96.531  82.219  1.00  0.00 REC       H
TORSDOF 16
ENDMDL
MODEL 4
USER: ADFR SOLUTION from run 75
USER: SCORE 11.116411 LL:  -4.721 LR:  -5.947 RR:  -1.792 FEB:  -1.174
USER: RMSD -1
USER: STATUS searching
USER: GENES 31
USER: genes 0 Torsion [N]-CA--CB-[SG] |==|  0.72896
USER: genes 1 Torsion [CA]-CB--SG-[CX] |==|  0.73397
USER: genes 2 Torsion [CB]-SG--CX-[CX] |==|  0.63226
USER: genes 3 Torsion [CX]-CX--OX-[CX] |==|  0.79317
USER: genes 4 Torsion [CX]-OX--CX-[CX] |==|  0.62680
USER: genes 5 Torsion [OX]-CX--CX-[CX] |==|  0.26491
USER: genes 6 Torsion [CX]-CX--CX-[CX] |==|  0.68716
USER: genes 7 Torsion [CX]-CX--OX-[CX] |==|  0.32793
USER: genes 8 Torsion [CX]-OX--CX-[CX] |==|  0.56273
USER: genes 9 Torsion [CX]-CX--OX-[CX] |==|  0.64380
USER: genes 10 Torsion [CX]-OX--CX-[CX] |==|  0.39944
USER: genes 11 Torsion [CX]-CX--OX-[H] |==|  0.15619
USER: genes 12 Torsion [CX]-CX--OX-[CX] |==|  0.63104
USER: genes 13 Torsion [CX]-OX--CX-[CX] |==|  0.37843
USER: genes 14 Torsion [CX]-CX--OX-[H] |==|  0.55677
USER: genes 15 Torsion [N]-CA--CB-[CG] |==|  0.71958
USER: genes 16 Torsion [CA]-CB--CG-[CD] |==|  0.96139
USER: genes 17 Torsion [CB]-CG--CD-[NE] |==|  0.41116
USER: genes 18 Torsion [CG]-CD--NE-[CZ] |==|  0.55598
USER: genes 19 Torsion [N]-CA--CB-[CG] |==|  0.14895
USER: genes 20 Torsion [CA]-CB--CG-[CD] |==|  0.32828
USER: genes 21 Torsion [CB]-CG--CD-[NE] |==|  0.65696
USER: genes 22 Torsion [CG]-CD--NE-[CZ] |==|  0.41943
USER: genes 23 Torsion [N]-CA--CB-[CG] |==|  0.05304
USER: genes 24 Torsion [CA]-CB--CG-[CD] |==|  0.59424
USER: genes 25 Torsion [CB]-CG--CD-[NE] |==|  0.78488
USER: genes 26 Torsion [CG]-CD--NE-[CZ] |==|  0.83932
USER: genes 27 Torsion [N]-CA--CB-[CG] |==|  0.86278
USER: genes 28 Torsion [CA]-CB--CG-[CD] |==|  0.35649
USER: genes 29 Torsion [CB]-CG--CD-[NE] |==|  0.43222
USER: genes 30 Torsion [CG]-CD--NE-[CZ] |==|  0.77874
ROOT
ATOM      1  N   CYS A  91      90.107 101.410  84.877  1.00  0.00 LIG 0.62  N 
ATOM      2  CA  CYS A  91      90.769 102.529  84.264  1.00  0.00 LIG 0.38  C 
ATOM      3  C   CYS A  91      90.208 102.718  82.886  1.00  0.00 LIG 0.25  C 
ATOM      4 O    CYS A  91      90.626 102.063  81.932  1.00  0.00 LIG-0.29  OA
ENDROOT
BRANCH 2 5
ATOM      5  CB  CYS A  91      92.286 102.312  84.119  1.00  0.00 LIG 0.10  C 
BRANCH 5 6
ATOM      6 SG   CYS A  91      93.248 103.086  85.451  1.00  0.00 LIG-0.13  SA
BRANCH 6 7
ATOM      7  CX  LIG A  91      93.745 104.703  84.725  1.00  0.00 LIG 0.13  C 
ATOM      8  CX  LIG A  91      95.202 105.066  84.884  1.00  0.00 LIG 0.28  C 
ATOM      9 OX   LIG A  91      95.337 106.416  84.752  1.00  0.00 LIG-0.31  OA
ATOM     10 OX   LIG A  91      96.157 104.318  84.998  1.00  0.00 LIG-0.26  OA
ATOM     11  CX  LIG A  91      94.128 107.037  85.186  1.00  0.00 LIG 0.19  C 
ATOM     12  CX  LIG A  91      93.769 108.177  84.275  1.00  0.00 LIG 0.01  C 
ATOM     13  CX  LIG A  91      93.052 105.932  85.401  1.00  0.00 LIG 0.14  C 
ATOM     14  CX  LIG A  91      93.825 109.488  84.589  1.00  0.00 LIG-0.08  C 
ATOM     15  CX  LIG A  91      94.414 110.037  85.881  1.00  0.00 LIG 0.07  C 
ATOM     16  CX  LIG A  91      93.344 110.526  83.606  1.00  0.00 LIG 0.04  C 
ATOM     17  CX  LIG A  91      93.441 110.085  87.089  1.00  0.00 LIG 0.17  C 
ATOM     18  CX  LIG A  91      93.695 109.077  88.271  1.00  0.00 LIG 0.17  C 
ATOM     19  CX  LIG A  91      92.521 108.071  88.687  1.00  0.00 LIG 0.02  C 
ATOM     20  CX  LIG A  91      91.931 107.166  87.488  1.00  0.00 LIG 0.04  C 
ATOM     21  CX  LIG A  91      91.357 108.946  89.301  1.00  0.00 LIG 0.14  C 
ATOM     22  CX  LIG A  91      93.079 107.228  89.875  1.00  0.00 LIG 0.02  C 
ATOM     23  CX  LIG A  91      92.719 105.866  86.969  1.00  0.00 LIG 0.18  C 
ATOM     24  CX  LIG A  91      90.343 106.951  87.638  1.00  0.00 LIG 0.02  C 
ATOM     25  CX  LIG A  91      89.673 105.810  86.855  1.00  0.00 LIG 0.01  C 
ATOM     26  CX  LIG A  91      89.841 106.897  89.093  1.00  0.00 LIG 0.12  C 
ATOM     27  CX  LIG A  91      90.271 108.080  89.959  1.00  0.00 LIG 0.07  C 
ATOM     28  CX  LIG A  91      93.483 104.636  83.200  1.00  0.00 LIG 0.04  C 
BRANCH 17 29
ATOM     29 OX   LIG A  91      93.591 111.404  87.707  1.00  0.00 LIG-0.31  OA
BRANCH 29 30
ATOM     30  CX  LIG A  91      94.705 111.650  88.443  1.00  0.00 LIG 0.26  C 
ATOM     31 OX   LIG A  91      95.846 111.393  88.094  1.00  0.00 LIG-0.27  OA
BRANCH 30 32
ATOM     32  CX  LIG A  91      94.308 112.328  89.736  1.00  0.00 LIG 0.11  C 
BRANCH 32 33
ATOM     33  CX  LIG A  91      94.146 111.353  90.899  1.00  0.00 LIG 0.01  C 
ATOM     34  CX  LIG A  91      92.703 111.237  91.368  1.00  0.00 LIG 0.01  C 
ENDBRANCH 32 33
ENDBRANCH 30 32
ENDBRANCH 29 30
ENDBRANCH 17 29
BRANCH 18 35
ATOM     35 OX   LIG A  91      94.929 108.338  88.104  1.00  0.00 LIG-0.31  OA
BRANCH 35 36
ATOM     36  CX  LIG A  91      95.892 108.502  89.055  1.00  0.00 LIG 0.26  C 
ATOM     37  CX  LIG A  91      97.232 108.147  88.489  1.00  0.00 LIG 0.13  C 
ATOM     38 OX   LIG A  91      95.705 108.878  90.201  1.00  0.00 LIG-0.27  OA
ENDBRANCH 35 36
ENDBRANCH 18 35
BRANCH 23 39
ATOM     39 OX   LIG A  91      93.968 105.624  87.652  1.00  0.00 LIG-0.31  OA
BRANCH 39 40
ATOM     40  CX  LIG A  91      94.018 104.587  88.540  1.00  0.00 LIG 0.26  C 
ATOM     41  CX  LIG A  91      95.362 103.927  88.478  1.00  0.00 LIG 0.13  C 
ATOM     42 OX   LIG A  91      93.113 104.230  89.278  1.00  0.00 LIG-0.27  OA
ENDBRANCH 39 40
ENDBRANCH 23 39
BRANCH 26 43
ATOM     43 OX   LIG A  91      90.272 105.675  89.678  1.00  0.00 LIG-0.40  OA
ATOM     44 H    LIG A  91      91.237 105.605  89.609  1.00  0.00 LIG 0.21  HD
ENDBRANCH 26 43
BRANCH 21 45
ATOM     45 OX   LIG A  91      90.722 109.749  88.284  1.00  0.00 LIG-0.32  OA
BRANCH 45 46
ATOM     46  CX  LIG A  91      90.511 111.064  88.559  1.00  0.00 LIG 0.26  C 
ATOM     47  CX  LIG A  91      90.878 111.914  87.380  1.00  0.00 LIG 0.13  C 
ATOM     48 OX   LIG A  91      90.041 111.500  89.600  1.00  0.00 LIG-0.27  OA
ENDBRANCH 45 46
ENDBRANCH 21 45
BRANCH 13 49
ATOM     49 OX   LIG A  91      91.839 106.227  84.685  1.00  0.00 LIG-0.38  OA
ATOM     50 H    LIG A  91      91.571 107.142  84.866  1.00  0.00 LIG 0.21  HD
ENDBRANCH 13 49
ENDBRANCH 6 7
ENDBRANCH 5 6
ENDBRANCH 2 5
ATOM      1  N   ARG A  83      83.253 109.046  90.414  1.00 96.62 REC       N
ATOM      2  CA  ARG A  83      83.834 108.084  91.301  1.00 96.62 REC       C
ATOM      3  CB  ARG A  83      83.558 108.418  92.776  1.00 96.62 REC       C
ATOM      4  CG  ARG A  83      84.751 109.078  93.474  1.00 96.62 REC       C
ATOM      5  CD  ARG A  83      86.072 108.979  92.707  1.00 96.62 REC       C
ATOM      6  NE  ARG A  83      86.854 110.210  93.019  1.00 96.62 REC       N
ATOM      7  HE  ARG A  83      86.630 110.753  93.853  1.00  0.00 REC       H
ATOM      8  CZ  ARG A  83      87.867 110.618  92.200  1.00 96.62 REC       C
ATOM      9  NH1 ARG A  83      88.190 109.890  91.091  1.00 96.62 REC       N
ATOM     10 1HH1 ARG A  83      87.672 109.038  90.875  1.00  0.00 REC       H
ATOM     11 2HH1 ARG A  83      88.947 110.195  90.479  1.00  0.00 REC       H
ATOM     12  NH2 ARG A  83      88.560 111.757  92.489  1.00 96.62 REC       N
ATOM     13 1HH2 ARG A  83      88.319 112.301  93.317  1.00  0.00 REC       H
ATOM     14 2HH2 ARG A  83      89.317 112.062  91.877  1.00  0.00 REC       H
ATOM     15  N   ARG A  86      84.452 105.426  87.764  1.00122.64 REC       N
ATOM     16  CA  ARG A  86      85.847 105.107  87.799  1.00122.64 REC       C
ATOM     17  CB  ARG A  86      86.739 106.183  88.448  1.00122.64 REC       C
ATOM     18  CG  ARG A  86      86.340 106.634  89.852  1.00122.64 REC       C
ATOM     19  CD  ARG A  86      87.435 106.328  90.875  1.00122.64 REC       C
ATOM     20  NE  ARG A  86      86.846 105.489  91.952  1.00122.64 REC       N
ATOM     21  HE  ARG A  86      85.856 105.569  92.186  1.00  0.00 REC       H
ATOM     22  CZ  ARG A  86      87.647 104.612  92.625  1.00122.64 REC       C
ATOM     23  NH1 ARG A  86      88.971 104.520  92.309  1.00122.64 REC       N
ATOM     24 1HH1 ARG A  86      89.363 105.107  91.573  1.00  0.00 REC       H
ATOM     25 2HH1 ARG A  86      89.569 103.864  92.812  1.00  0.00 REC       H
ATOM     26  NH2 ARG A  86      87.123 103.827  93.610  1.00122.64 REC       N
ATOM     27 1HH2 ARG A  86      86.133 103.896  93.846  1.00  0.00 REC       H
ATOM     28 2HH2 ARG A  86      87.721 103.171  94.112  1.00  0.00 REC       H
ATOM     29  N   ARG A  94      92.572 103.846  79.741  1.00106.25 REC       N
ATOM     30  CA  ARG A  94      93.222 102.901  78.884  1.00106.25 REC       C
ATOM     31  CB  ARG A  94      93.777 101.680  79.639  1.00106.25 REC       C
ATOM     32  CG  ARG A  94      93.154 101.471  81.020  1.00106.25 REC       C
ATOM     33  CD  ARG A  94      94.129 100.899  82.049  1.00106.25 REC       C
ATOM     34  NE  ARG A  94      94.260  99.442  81.769  1.00106.25 REC       N
ATOM     35  HE  ARG A  94      95.177  99.041  81.569  1.00  0.00 REC       H
ATOM     36  CZ  ARG A  94      93.153  98.643  81.779  1.00106.25 REC       C
ATOM     37  NH1 ARG A  94      91.926  99.184  82.032  1.00106.25 REC       N
ATOM     38 1HH1 ARG A  94      91.836 100.183  82.215  1.00  0.00 REC       H
ATOM     39 2HH1 ARG A  94      91.099  98.587  82.040  1.00  0.00 REC       H
ATOM     40  NH2 ARG A  94      93.273  97.306  81.533  1.00106.25 REC       N
ATOM     41 1HH2 ARG A  94      94.190  96.902  81.344  1.00  0.00 REC       H
ATOM     42 2HH2 ARG A  94      92.445  96.709  81.541  1.00  0.00 REC       H
ATOM     43  N   ARG A  95      90.988 102.141  78.307  1.00 63.53 REC       N
ATOM     44  CA  ARG A  95      90.003 101.621  77.405  1.00 63.53 REC       C
ATOM     45  CB  ARG A  95      88.650 101.313  78.069  1.00 63.53 REC       C
ATOM     46  CG  ARG A  95      88.753 100.482  79.349  1.00 63.53 REC       C
ATOM     47  CD  ARG A  95      88.015 101.080  80.546  1.00 63.53 REC       C
ATOM     48  NE  ARG A  95      87.696  99.955  81.469  1.00 63.53 REC       N
ATOM     49  HE  ARG A  95      88.274  99.789  82.293  1.00  0.00 REC       H
ATOM     50  CZ  ARG A  95      86.626  99.147  81.209  1.00 63.53 REC       C
ATOM     51  NH1 ARG A  95      85.880  99.350  80.083  1.00 63.53 REC       N
ATOM     52 1HH1 ARG A  95      86.118 100.106  79.441  1.00  0.00 REC       H
ATOM     53 2HH1 ARG A  95      85.081  98.747  79.888  1.00  0.00 REC       H
ATOM     54  NH2 ARG A  95      86.309  98.136  82.068  1.00 63.53 REC       N
ATOM     55 1HH2 ARG A  95      86.866  97.985  82.909  1.00  0.00 REC       H
ATOM     56 2HH2 ARG A  95      85.510  97.533  81.873  1.00  0.00 REC       H
TORSDOF 16
ENDMDL
MODEL 5
USER: ADFR SOLUTION from run 8
USER: SCORE 10.620055 LL:  -4.739 LR:  -5.775 RR:  -0.422 FEB:  -1.003
USER: RMSD -1
USER: STATUS searching
USER: GENES 31
USER: genes 0 Torsion [N]-CA--CB-[SG] |==|  0.04836
USER: genes 1 Torsion [CA]-CB--SG-[CX] |==|  0.61077
USER: genes 2 Torsion [CB]-SG--CX-[CX] |==|  0.52889
USER: genes 3 Torsion [CX]-CX--OX-[CX] |==|  0.70797
USER: genes 4 Torsion [CX]-OX--CX-[CX] |==|  0.71262
USER: genes 5 Torsion [OX]-CX--CX-[CX] |==|  0.44073
USER: genes 6 Torsion [CX]-CX--CX-[CX] |==|  0.69600
USER: genes 7 Torsion [CX]-CX--OX-[CX] |==|  0.34515
USER: genes 8 Torsion [CX]-OX--CX-[CX] |==|  0.52283
USER: genes 9 Torsion [CX]-CX--OX-[CX] |==|  0.64204
USER: genes 10 Torsion [CX]-OX--CX-[CX] |==|  0.37414
USER: genes 11 Torsion [CX]-CX--OX-[H] |==|  0.11732
USER: genes 12 Torsion [CX]-CX--OX-[CX] |==|  0.56913
USER: genes 13 Torsion [CX]-OX--CX-[CX] |==|  0.33776
USER: genes 14 Torsion [CX]-CX--OX-[H] |==|  0.78793
USER: genes 15 Torsion [N]-CA--CB-[CG] |==|  0.82423
USER: genes 16 Torsion [CA]-CB--CG-[CD] |==|  0.91417
USER: genes 17 Torsion [CB]-CG--CD-[NE] |==|  0.46754
USER: genes 18 Torsion [CG]-CD--NE-[CZ] |==|  0.47459
USER: genes 19 Torsion [N]-CA--CB-[CG] |==|  0.21913
USER: genes 20 Torsion [CA]-CB--CG-[CD] |==|  0.31334
USER: genes 21 Torsion [CB]-CG--CD-[NE] |==|  0.63426
USER: genes 22 Torsion [CG]-CD--NE-[CZ] |==|  0.47216
USER: genes 23 Torsion [N]-CA--CB-[CG] |==|  0.54066
USER: genes 24 Torsion [CA]-CB--CG-[CD] |==|  0.64605
USER: genes 25 Torsion [CB]-CG--CD-[NE] |==|  0.94806
USER: genes 26 Torsion [CG]-CD--NE-[CZ] |==|  0.77671
USER: genes 27 Torsion [N]-CA--CB-[CG] |==|  0.76262
USER: genes 28 Torsion [CA]-CB--CG-[CD] |==|  0.16173
USER: genes 29 Torsion [CB]-CG--CD-[NE] |==|  0.48110
USER: genes 30 Torsion [CG]-CD--NE-[CZ] |==|  0.58731
ROOT
ATOM      1  N   CYS A  91      90.107 101.410  84.877  1.00  0.00 LIG 0.62  N 
ATOM      2  CA  CYS A  91      90.769 102.529  84.264  1.00  0.00 LIG 0.38  C 
ATOM      3  C   CYS A  91      90.208 102.718  82.886  1.00  0.00 LIG 0.25  C 
ATOM      4 O    CYS A  91      90.626 102.063  81.932  1.00  0.00 LIG-0.29  OA
ENDROOT
BRANCH 2 5
ATOM      5  CB  CYS A  91      92.286 102.312  84.119  1.00  0.00 LIG 0.10  C 
BRANCH 5 6
ATOM      6 SG   CYS A  91      92.775 100.570  84.275  1.00  0.00 LIG-0.13  SA
BRANCH 6 7
ATOM      7  CX  LIG A  91      94.333 100.657  85.254  1.00  0.00 LIG 0.13  C 
ATOM      8  CX  LIG A  91      95.117  99.371  85.342  1.00  0.00 LIG 0.28  C 
ATOM      9 OX   LIG A  91      95.937  99.428  86.429  1.00  0.00 LIG-0.31  OA
ATOM     10 OX   LIG A  91      95.144  98.448  84.547  1.00  0.00 LIG-0.26  OA
ATOM     11  CX  LIG A  91      95.329 100.265  87.412  1.00  0.00 LIG 0.19  C 
ATOM     12  CX  LIG A  91      96.362 101.138  88.068  1.00  0.00 LIG 0.01  C 
ATOM     13  CX  LIG A  91      94.103 100.976  86.768  1.00  0.00 LIG 0.14  C 
ATOM     14  CX  LIG A  91      96.804 101.022  89.338  1.00  0.00 LIG-0.08  C 
ATOM     15  CX  LIG A  91      96.435  99.881  90.274  1.00  0.00 LIG 0.07  C 
ATOM     16  CX  LIG A  91      97.778 102.029  89.898  1.00  0.00 LIG 0.04  C 
ATOM     17  CX  LIG A  91      95.108 100.064  91.059  1.00  0.00 LIG 0.17  C 
ATOM     18  CX  LIG A  91      93.892  99.146  90.660  1.00  0.00 LIG 0.17  C 
ATOM     19  CX  LIG A  91      92.521  99.840  90.213  1.00  0.00 LIG 0.02  C 
ATOM     20  CX  LIG A  91      92.649 100.907  89.008  1.00  0.00 LIG 0.04  C 
ATOM     21  CX  LIG A  91      91.929 100.562  91.488  1.00  0.00 LIG 0.14  C 
ATOM     22  CX  LIG A  91      91.532  98.674  89.898  1.00  0.00 LIG 0.02  C 
ATOM     23  CX  LIG A  91      92.779 100.419  87.483  1.00  0.00 LIG 0.18  C 
ATOM     24  CX  LIG A  91      91.649 102.152  89.214  1.00  0.00 LIG 0.02  C 
ATOM     25  CX  LIG A  91      91.324 103.046  88.008  1.00  0.00 LIG 0.01  C 
ATOM     26  CX  LIG A  91      90.328 101.799  89.923  1.00  0.00 LIG 0.12  C 
ATOM     27  CX  LIG A  91      90.496 101.064  91.252  1.00  0.00 LIG 0.07  C 
ATOM     28  CX  LIG A  91      95.265 101.683  84.565  1.00  0.00 LIG 0.04  C 
BRANCH 17 29
ATOM     29 OX   LIG A  91      95.382  99.708  92.452  1.00  0.00 LIG-0.31  OA
BRANCH 29 30
ATOM     30  CX  LIG A  91      94.923  98.518  92.918  1.00  0.00 LIG 0.26  C 
ATOM     31 OX   LIG A  91      95.443  97.435  92.702  1.00  0.00 LIG-0.27  OA
BRANCH 30 32
ATOM     32  CX  LIG A  91      93.700  98.756  93.775  1.00  0.00 LIG 0.11  C 
BRANCH 32 33
ATOM     33  CX  LIG A  91      92.818  97.519  93.919  1.00  0.00 LIG 0.01  C 
ATOM     34  CX  LIG A  91      91.501  97.649  93.168  1.00  0.00 LIG 0.01  C 
ENDBRANCH 32 33
ENDBRANCH 30 32
ENDBRANCH 29 30
ENDBRANCH 17 29
BRANCH 18 35
ATOM     35 OX   LIG A  91      94.264  98.138  89.689  1.00  0.00 LIG-0.31  OA
BRANCH 35 36
ATOM     36  CX  LIG A  91      94.017  96.836  90.012  1.00  0.00 LIG 0.26  C 
ATOM     37  CX  LIG A  91      94.641  95.932  88.993  1.00  0.00 LIG 0.13  C 
ATOM     38 OX   LIG A  91      93.381  96.450  90.979  1.00  0.00 LIG-0.27  OA
ENDBRANCH 35 36
ENDBRANCH 18 35
BRANCH 23 39
ATOM     39 OX   LIG A  91      92.789  98.985  87.323  1.00  0.00 LIG-0.31  OA
BRANCH 39 40
ATOM     40  CX  LIG A  91      91.664  98.391  86.822  1.00  0.00 LIG 0.26  C 
ATOM     41  CX  LIG A  91      92.041  97.389  85.774  1.00  0.00 LIG 0.13  C 
ATOM     42 OX   LIG A  91      90.516  98.632  87.159  1.00  0.00 LIG-0.27  OA
ENDBRANCH 39 40
ENDBRANCH 23 39
BRANCH 26 43
ATOM     43 OX   LIG A  91      89.525 101.032  89.034  1.00  0.00 LIG-0.40  OA
ATOM     44 H    LIG A  91      90.080 100.382  88.576  1.00  0.00 LIG 0.21  HD
ENDBRANCH 26 43
BRANCH 21 45
ATOM     45 OX   LIG A  91      92.738 101.699  91.860  1.00  0.00 LIG-0.32  OA
BRANCH 45 46
ATOM     46  CX  LIG A  91      92.699 102.103  93.158  1.00  0.00 LIG 0.26  C 
ATOM     47  CX  LIG A  91      94.071 102.067  93.760  1.00  0.00 LIG 0.13  C 
ATOM     48 OX   LIG A  91      91.700 102.490  93.746  1.00  0.00 LIG-0.27  OA
ENDBRANCH 45 46
ENDBRANCH 21 45
BRANCH 13 49
ATOM     49 OX   LIG A  91      94.160 102.402  86.952  1.00  0.00 LIG-0.38  OA
ATOM     50 H    LIG A  91      95.085 102.694  86.925  1.00  0.00 LIG 0.21  HD
ENDBRANCH 13 49
ENDBRANCH 6 7
ENDBRANCH 5 6
ENDBRANCH 2 5
ATOM      1  N   ARG A  83      83.253 109.046  90.414  1.00 96.62 REC       N
ATOM      2  CA  ARG A  83      83.834 108.084  91.301  1.00 96.62 REC       C
ATOM      3  CB  ARG A  83      83.558 108.418  92.776  1.00 96.62 REC       C
ATOM      4  CG  ARG A  83      84.186 109.744  93.218  1.00 96.62 REC       C
ATOM      5  CD  ARG A  83      85.484 110.106  92.492  1.00 96.62 REC       C
ATOM      6  NE  ARG A  83      85.792 111.527  92.826  1.00 96.62 REC       N
ATOM      7  HE  ARG A  83      85.101 112.090  93.322  1.00  0.00 REC       H
ATOM      8  CZ  ARG A  83      86.989 112.080  92.476  1.00 96.62 REC       C
ATOM      9  NH1 ARG A  83      87.930 111.332  91.830  1.00 96.62 REC       N
ATOM     10 1HH1 ARG A  83      87.737 110.355  91.609  1.00  0.00 REC       H
ATOM     11 2HH1 ARG A  83      88.825 111.746  91.568  1.00  0.00 REC       H
ATOM     12  NH2 ARG A  83      87.247 113.387  92.771  1.00 96.62 REC       N
ATOM     13 1HH2 ARG A  83      86.545 113.947  93.254  1.00  0.00 REC       H
ATOM     14 2HH2 ARG A  83      88.142 113.801  92.509  1.00  0.00 REC       H
ATOM     15  N   ARG A  86      84.452 105.426  87.764  1.00122.64 REC       N
ATOM     16  CA  ARG A  86      85.847 105.107  87.799  1.00122.64 REC       C
ATOM     17  CB  ARG A  86      86.739 106.183  88.448  1.00122.64 REC       C
ATOM     18  CG  ARG A  86      86.753 106.218  89.976  1.00122.64 REC       C
ATOM     19  CD  ARG A  86      88.117 105.813  90.536  1.00122.64 REC       C
ATOM     20  NE  ARG A  86      87.901 104.803  91.606  1.00122.64 REC       N
ATOM     21  HE  ARG A  86      86.961 104.611  91.952  1.00  0.00 REC       H
ATOM     22  CZ  ARG A  86      88.976 104.135  92.117  1.00122.64 REC       C
ATOM     23  NH1 ARG A  86      90.229 104.405  91.652  1.00122.64 REC       N
ATOM     24 1HH1 ARG A  86      90.363 105.107  90.923  1.00  0.00 REC       H
ATOM     25 2HH1 ARG A  86      91.032 103.907  92.034  1.00  0.00 REC       H
ATOM     26  NH2 ARG A  86      88.797 103.198  93.092  1.00122.64 REC       N
ATOM     27 1HH2 ARG A  86      87.860 102.997  93.441  1.00  0.00 REC       H
ATOM     28 2HH2 ARG A  86      89.600 102.699  93.475  1.00  0.00 REC       H
ATOM     29  N   ARG A  94      92.572 103.846  79.741  1.00106.25 REC       N
ATOM     30  CA  ARG A  94      93.222 102.901  78.884  1.00106.25 REC       C
ATOM     31  CB  ARG A  94      93.777 101.680  79.639  1.00106.25 REC       C
ATOM     32  CG  ARG A  94      94.766 100.846  78.824  1.00106.25 REC       C
ATOM     33  CD  ARG A  94      94.413  99.360  78.771  1.00106.25 REC       C
ATOM     34  NE  ARG A  94      93.473  99.090  79.894  1.00106.25 REC       N
ATOM     35  HE  ARG A  94      92.470  99.034  79.718  1.00  0.00 REC       H
ATOM     36  CZ  ARG A  94      93.956  98.917  81.159  1.00106.25 REC       C
ATOM     37  NH1 ARG A  94      95.296  99.006  81.395  1.00106.25 REC       N
ATOM     38 1HH1 ARG A  94      95.938  99.200  80.626  1.00  0.00 REC       H
ATOM     39 2HH1 ARG A  94      95.657  98.877  82.341  1.00  0.00 REC       H
ATOM     40  NH2 ARG A  94      93.097  98.659  82.188  1.00106.25 REC       N
ATOM     41 1HH2 ARG A  94      92.094  98.592  82.012  1.00  0.00 REC       H
ATOM     42 2HH2 ARG A  94      93.457  98.529  83.134  1.00  0.00 REC       H
ATOM     43  N   ARG A  95      90.988 102.141  78.307  1.00 63.53 REC       N
ATOM     44  CA  ARG A  95      90.003 101.621  77.405  1.00 63.53 REC       C
ATOM     45  CB  ARG A  95      88.650 101.313  78.069  1.00 63.53 REC       C
ATOM     46  CG  ARG A  95      88.567  99.929  78.713  1.00 63.53 REC       C
ATOM     47  CD  ARG A  95      89.620  99.673  79.790  1.00 63.53 REC       C
ATOM     48  NE  ARG A  95      89.293  98.363  80.420  1.00 63.53 REC       N
ATOM     49  HE  ARG A  95      88.851  97.627  79.871  1.00  0.00 REC       H
ATOM     50  CZ  ARG A  95      89.588  98.152  81.737  1.00 63.53 REC       C
ATOM     51  NH1 ARG A  95      90.143  99.156  82.478  1.00 63.53 REC       N
ATOM     52 1HH1 ARG A  95      90.342 100.060  82.048  1.00  0.00 REC       H
ATOM     53 2HH1 ARG A  95      90.363  98.999  83.461  1.00  0.00 REC       H
ATOM     54  NH2 ARG A  95      89.320  96.944  82.311  1.00 63.53 REC       N
ATOM     55 1HH2 ARG A  95      88.906  96.194  81.758  1.00  0.00 REC       H
ATOM     56 2HH2 ARG A  95      89.541  96.786  83.295  1.00  0.00 REC       H
TORSDOF 16
ENDMDL
MODEL 6
USER: ADFR SOLUTION from run 87
USER: SCORE 10.580217 LL:  -4.683 LR:  -5.390 RR:  -2.028 FEB:  -0.617
USER: RMSD -1
USER: STATUS searching
USER: GENES 31
USER: genes 0 Torsion [N]-CA--CB-[SG] |==|  0.90639
USER: genes 1 Torsion [CA]-CB--SG-[CX] |==|  0.65201
USER: genes 2 Torsion [CB]-SG--CX-[CX] |==|  0.48004
USER: genes 3 Torsion [CX]-CX--OX-[CX] |==|  0.64438
USER: genes 4 Torsion [CX]-OX--CX-[CX] |==|  0.29957
USER: genes 5 Torsion [OX]-CX--CX-[CX] |==|  0.02139
USER: genes 6 Torsion [CX]-CX--CX-[CX] |==|  0.61860
USER: genes 7 Torsion [CX]-CX--OX-[CX] |==|  0.31050
USER: genes 8 Torsion [CX]-OX--CX-[CX] |==|  0.57048
USER: genes 9 Torsion [CX]-CX--OX-[CX] |==|  0.63845
USER: genes 10 Torsion [CX]-OX--CX-[CX] |==|  0.36267
USER: genes 11 Torsion [CX]-CX--OX-[H] |==|  0.09707
USER: genes 12 Torsion [CX]-CX--OX-[CX] |==|  0.59051
USER: genes 13 Torsion [CX]-OX--CX-[CX] |==|  0.45504
USER: genes 14 Torsion [CX]-CX--OX-[H] |==|  0.56875
USER: genes 15 Torsion [N]-CA--CB-[CG] |==|  0.78852
USER: genes 16 Torsion [CA]-CB--CG-[CD] |==|  0.95038
USER: genes 17 Torsion [CB]-CG--CD-[NE] |==|  0.72801
USER: genes 18 Torsion [CG]-CD--NE-[CZ] |==|  0.47634
USER: genes 19 Torsion [N]-CA--CB-[CG] |==|  0.16358
USER: genes 20 Torsion [CA]-CB--CG-[CD] |==|  0.36634
USER: genes 21 Torsion [CB]-CG--CD-[NE] |==|  0.69523
USER: genes 22 Torsion [CG]-CD--NE-[CZ] |==|  0.48602
USER: genes 23 Torsion [N]-CA--CB-[CG] |==|  0.20186
USER: genes 24 Torsion [CA]-CB--CG-[CD] |==|  0.54973
USER: genes 25 Torsion [CB]-CG--CD-[NE] |==|  0.83595
USER: genes 26 Torsion [CG]-CD--NE-[CZ] |==|  0.58654
USER: genes 27 Torsion [N]-CA--CB-[CG] |==|  0.88787
USER: genes 28 Torsion [CA]-CB--CG-[CD] |==|  0.38396
USER: genes 29 Torsion [CB]-CG--CD-[NE] |==|  0.41400
USER: genes 30 Torsion [CG]-CD--NE-[CZ] |==|  0.76306
ROOT
ATOM      1  N   CYS A  91      90.107 101.410  84.877  1.00  0.00 LIG 0.62  N 
ATOM      2  CA  CYS A  91      90.769 102.529  84.264  1.00  0.00 LIG 0.38  C 
ATOM      3  C   CYS A  91      90.208 102.718  82.886  1.00  0.00 LIG 0.25  C 
ATOM      4 O    CYS A  91      90.626 102.063  81.932  1.00  0.00 LIG-0.29  OA
ENDROOT
BRANCH 2 5
ATOM      5  CB  CYS A  91      92.286 102.312  84.119  1.00  0.00 LIG 0.10  C 
BRANCH 5 6
ATOM      6 SG   CYS A  91      93.000 101.336  85.475  1.00  0.00 LIG-0.13  SA
BRANCH 6 7
ATOM      7  CX  LIG A  91      94.349 102.419  86.106  1.00  0.00 LIG 0.13  C 
ATOM      8  CX  LIG A  91      95.029 101.941  87.366  1.00  0.00 LIG 0.28  C 
ATOM      9 OX   LIG A  91      95.633 103.003  87.972  1.00  0.00 LIG-0.31  OA
ATOM     10 OX   LIG A  91      95.152 100.797  87.769  1.00  0.00 LIG-0.26  OA
ATOM     11  CX  LIG A  91      94.899 104.184  87.651  1.00  0.00 LIG 0.19  C 
ATOM     12  CX  LIG A  91      95.839 105.324  87.375  1.00  0.00 LIG 0.01  C 
ATOM     13  CX  LIG A  91      93.857 103.838  86.547  1.00  0.00 LIG 0.14  C 
ATOM     14  CX  LIG A  91      96.027 106.403  88.164  1.00  0.00 LIG-0.08  C 
ATOM     15  CX  LIG A  91      95.426 106.565  89.552  1.00  0.00 LIG 0.07  C 
ATOM     16  CX  LIG A  91      96.935 107.522  87.717  1.00  0.00 LIG 0.04  C 
ATOM     17  CX  LIG A  91      93.988 107.149  89.592  1.00  0.00 LIG 0.17  C 
ATOM     18  CX  LIG A  91      92.819 106.180  90.008  1.00  0.00 LIG 0.17  C 
ATOM     19  CX  LIG A  91      91.597 105.973  88.995  1.00  0.00 LIG 0.02  C 
ATOM     20  CX  LIG A  91      92.008 105.511  87.503  1.00  0.00 LIG 0.04  C 
ATOM     21  CX  LIG A  91      90.818 107.346  88.920  1.00  0.00 LIG 0.14  C 
ATOM     22  CX  LIG A  91      90.621 104.978  89.697  1.00  0.00 LIG 0.02  C 
ATOM     23  CX  LIG A  91      92.394 103.984  87.188  1.00  0.00 LIG 0.18  C 
ATOM     24  CX  LIG A  91      91.059 106.190  86.394  1.00  0.00 LIG 0.02  C 
ATOM     25  CX  LIG A  91      91.016 105.579  84.984  1.00  0.00 LIG 0.01  C 
ATOM     26  CX  LIG A  91      89.611 106.436  86.857  1.00  0.00 LIG 0.12  C 
ATOM     27  CX  LIG A  91      89.485 107.212  88.167  1.00  0.00 LIG 0.07  C 
ATOM     28  CX  LIG A  91      95.450 102.482  85.020  1.00  0.00 LIG 0.04  C 
BRANCH 17 29
ATOM     29 OX   LIG A  91      93.975 108.187  90.624  1.00  0.00 LIG-0.31  OA
BRANCH 29 30
ATOM     30  CX  LIG A  91      93.016 108.133  91.584  1.00  0.00 LIG 0.26  C 
ATOM     31 OX   LIG A  91      91.829 108.354  91.401  1.00  0.00 LIG-0.27  OA
BRANCH 30 32
ATOM     32  CX  LIG A  91      93.645 107.716  92.894  1.00  0.00 LIG 0.11  C 
BRANCH 32 33
ATOM     33  CX  LIG A  91      95.169 107.655  92.835  1.00  0.00 LIG 0.01  C 
ATOM     34  CX  LIG A  91      95.733 106.427  93.535  1.00  0.00 LIG 0.01  C 
ENDBRANCH 32 33
ENDBRANCH 30 32
ENDBRANCH 29 30
ENDBRANCH 17 29
BRANCH 18 35
ATOM     35 OX   LIG A  91      93.308 104.890  90.447  1.00  0.00 LIG-0.31  OA
BRANCH 35 36
ATOM     36  CX  LIG A  91      93.157 104.578  91.765  1.00  0.00 LIG 0.26  C 
ATOM     37  CX  LIG A  91      94.196 103.580  92.175  1.00  0.00 LIG 0.13  C 
ATOM     38 OX   LIG A  91      92.304 105.031  92.512  1.00  0.00 LIG-0.27  OA
ENDBRANCH 35 36
ENDBRANCH 18 35
BRANCH 23 39
ATOM     39 OX   LIG A  91      92.353 103.117  88.341  1.00  0.00 LIG-0.31  OA
BRANCH 39 40
ATOM     40  CX  LIG A  91      91.296 102.257  88.455  1.00  0.00 LIG 0.26  C 
ATOM     41  CX  LIG A  91      91.793 100.874  88.744  1.00  0.00 LIG 0.13  C 
ATOM     42 OX   LIG A  91      90.117 102.551  88.335  1.00  0.00 LIG-0.27  OA
ENDBRANCH 39 40
ENDBRANCH 23 39
BRANCH 26 43
ATOM     43 OX   LIG A  91      88.947 105.183  86.960  1.00  0.00 LIG-0.40  OA
ATOM     44 H    LIG A  91      89.574 104.508  87.264  1.00  0.00 LIG 0.21  HD
ENDBRANCH 26 43
BRANCH 21 45
ATOM     45 OX   LIG A  91      91.605 108.350  88.245  1.00  0.00 LIG-0.32  OA
BRANCH 45 46
ATOM     46  CX  LIG A  91      91.461 109.641  88.647  1.00  0.00 LIG 0.26  C 
ATOM     47  CX  LIG A  91      92.597 110.478  88.143  1.00  0.00 LIG 0.13  C 
ATOM     48 OX   LIG A  91      90.517 110.078  89.288  1.00  0.00 LIG-0.27  OA
ENDBRANCH 45 46
ENDBRANCH 21 45
BRANCH 13 49
ATOM     49 OX   LIG A  91      93.959 104.730  85.423  1.00  0.00 LIG-0.38  OA
ATOM     50 H    LIG A  91      94.044 105.642  85.741  1.00  0.00 LIG 0.21  HD
ENDBRANCH 13 49
ENDBRANCH 6 7
ENDBRANCH 5 6
ENDBRANCH 2 5
ATOM      1  N   ARG A  83      83.253 109.046  90.414  1.00 96.62 REC       N
ATOM      2  CA  ARG A  83      83.834 108.084  91.301  1.00 96.62 REC       C
ATOM      3  CB  ARG A  83      83.558 108.418  92.776  1.00 96.62 REC       C
ATOM      4  CG  ARG A  83      84.429 109.562  93.304  1.00 96.62 REC       C
ATOM      5  CD  ARG A  83      85.667 109.863  92.456  1.00 96.62 REC       C
ATOM      6  NE  ARG A  83      86.820 109.171  93.101  1.00 96.62 REC       N
ATOM      7  HE  ARG A  83      86.701 108.738  94.017  1.00  0.00 REC       H
ATOM      8  CZ  ARG A  83      88.033 109.112  92.478  1.00 96.62 REC       C
ATOM      9  NH1 ARG A  83      88.200 109.669  91.243  1.00 96.62 REC       N
ATOM     10 1HH1 ARG A  83      87.415 110.132  90.786  1.00  0.00 REC       H
ATOM     11 2HH1 ARG A  83      89.107 109.625  90.778  1.00  0.00 REC       H
ATOM     12  NH2 ARG A  83      89.083 108.492  93.091  1.00 96.62 REC       N
ATOM     13 1HH2 ARG A  83      88.959 108.075  94.013  1.00  0.00 REC       H
ATOM     14 2HH2 ARG A  83      89.990 108.448  92.626  1.00  0.00 REC       H
ATOM     15  N   ARG A  86      84.452 105.426  87.764  1.00122.64 REC       N
ATOM     16  CA  ARG A  86      85.847 105.107  87.799  1.00122.64 REC       C
ATOM     17  CB  ARG A  86      86.739 106.183  88.448  1.00122.64 REC       C
ATOM     18  CG  ARG A  86      86.416 106.544  89.897  1.00122.64 REC       C
ATOM     19  CD  ARG A  86      87.672 106.553  90.769  1.00122.64 REC       C
ATOM     20  NE  ARG A  86      87.606 105.389  91.693  1.00122.64 REC       N
ATOM     21  HE  ARG A  86      86.776 104.797  91.719  1.00  0.00 REC       H
ATOM     22  CZ  ARG A  86      88.671 105.123  92.505  1.00122.64 REC       C
ATOM     23  NH1 ARG A  86      89.773 105.927  92.467  1.00122.64 REC       N
ATOM     24 1HH1 ARG A  86      89.801 106.726  91.834  1.00  0.00 REC       H
ATOM     25 2HH1 ARG A  86      90.568 105.728  93.074  1.00  0.00 REC       H
ATOM     26  NH2 ARG A  86      88.633 104.055  93.352  1.00122.64 REC       N
ATOM     27 1HH2 ARG A  86      87.809 103.455  93.381  1.00  0.00 REC       H
ATOM     28 2HH2 ARG A  86      89.428 103.856  93.959  1.00  0.00 REC       H
ATOM     29  N   ARG A  94      92.572 103.846  79.741  1.00106.25 REC       N
ATOM     30  CA  ARG A  94      93.222 102.901  78.884  1.00106.25 REC       C
ATOM     31  CB  ARG A  94      93.777 101.680  79.639  1.00106.25 REC       C
ATOM     32  CG  ARG A  94      92.699 100.710  80.124  1.00106.25 REC       C
ATOM     33  CD  ARG A  94      93.182  99.757  81.217  1.00106.25 REC       C
ATOM     34  NE  ARG A  94      94.325  98.985  80.655  1.00106.25 REC       N
ATOM     35  HE  ARG A  94      94.936  99.412  79.959  1.00  0.00 REC       H
ATOM     36  CZ  ARG A  94      94.554  97.706  81.072  1.00106.25 REC       C
ATOM     37  NH1 ARG A  94      93.727  97.131  81.992  1.00106.25 REC       N
ATOM     38 1HH1 ARG A  94      92.939  97.658  82.370  1.00  0.00 REC       H
ATOM     39 2HH1 ARG A  94      93.898  96.175  82.304  1.00  0.00 REC       H
ATOM     40  NH2 ARG A  94      95.608  97.001  80.566  1.00106.25 REC       N
ATOM     41 1HH2 ARG A  94      96.226  97.430  79.878  1.00  0.00 REC       H
ATOM     42 2HH2 ARG A  94      95.779  96.045  80.878  1.00  0.00 REC       H
ATOM     43  N   ARG A  95      90.988 102.141  78.307  1.00 63.53 REC       N
ATOM     44  CA  ARG A  95      90.003 101.621  77.405  1.00 63.53 REC       C
ATOM     45  CB  ARG A  95      88.650 101.313  78.069  1.00 63.53 REC       C
ATOM     46  CG  ARG A  95      88.761 100.675  79.454  1.00 63.53 REC       C
ATOM     47  CD  ARG A  95      87.769 101.223  80.479  1.00 63.53 REC       C
ATOM     48  NE  ARG A  95      87.453 100.112  81.420  1.00 63.53 REC       N
ATOM     49  HE  ARG A  95      87.968 100.020  82.295  1.00  0.00 REC       H
ATOM     50  CZ  ARG A  95      86.470  99.217  81.107  1.00 63.53 REC       C
ATOM     51  NH1 ARG A  95      85.811  99.321  79.915  1.00 63.53 REC       N
ATOM     52 1HH1 ARG A  95      86.048 100.070  79.263  1.00  0.00 REC       H
ATOM     53 2HH1 ARG A  95      85.077  98.653  79.681  1.00  0.00 REC       H
ATOM     54  NH2 ARG A  95      86.154  98.217  81.979  1.00 63.53 REC       N
ATOM     55 1HH2 ARG A  95      86.646  98.138  82.869  1.00  0.00 REC       H
ATOM     56 2HH2 ARG A  95      85.420  97.548  81.745  1.00  0.00 REC       H
TORSDOF 16
ENDMDL
MODEL 7
USER: ADFR SOLUTION from run 18
USER: SCORE 10.189927 LL:  -4.626 LR:  -4.962 RR:  -2.404 FEB:  -0.190
USER: RMSD -1
USER: STATUS searching
USER: GENES 31
USER: genes 0 Torsion [N]-CA--CB-[SG] |==|  0.91944
USER: genes 1 Torsion [CA]-CB--SG-[CX] |==|  0.34571
USER: genes 2 Torsion [CB]-SG--CX-[CX] |==|  0.48599
USER: genes 3 Torsion [CX]-CX--OX-[CX] |==|  0.12853
USER: genes 4 Torsion [CX]-OX--CX-[CX] |==|  0.61688
USER: genes 5 Torsion [OX]-CX--CX-[CX] |==|  0.28211
USER: genes 6 Torsion [CX]-CX--CX-[CX] |==|  0.74124
USER: genes 7 Torsion [CX]-CX--OX-[CX] |==|  0.21278
USER: genes 8 Torsion [CX]-OX--CX-[CX] |==|  0.60538
USER: genes 9 Torsion [CX]-CX--OX-[CX] |==|  0.64554
USER: genes 10 Torsion [CX]-OX--CX-[CX] |==|  0.39769
USER: genes 11 Torsion [CX]-CX--OX-[H] |==|  0.11160
USER: genes 12 Torsion [CX]-CX--OX-[CX] |==|  0.64277
USER: genes 13 Torsion [CX]-OX--CX-[CX] |==|  0.46357
USER: genes 14 Torsion [CX]-CX--OX-[H] |==|  0.80426
USER: genes 15 Torsion [N]-CA--CB-[CG] |==|  0.79751
USER: genes 16 Torsion [CA]-CB--CG-[CD] |==|  0.96083
USER: genes 17 Torsion [CB]-CG--CD-[NE] |==|  0.35257
USER: genes 18 Torsion [CG]-CD--NE-[CZ] |==|  0.39645
USER: genes 19 Torsion [N]-CA--CB-[CG] |==|  0.16001
USER: genes 20 Torsion [CA]-CB--CG-[CD] |==|  0.29165
USER: genes 21 Torsion [CB]-CG--CD-[NE] |==|  0.62078
USER: genes 22 Torsion [CG]-CD--NE-[CZ] |==|  0.47812
USER: genes 23 Torsion [N]-CA--CB-[CG] |==|  0.47151
USER: genes 24 Torsion [CA]-CB--CG-[CD] |==|  0.32465
USER: genes 25 Torsion [CB]-CG--CD-[NE] |==|  0.91213
USER: genes 26 Torsion [CG]-CD--NE-[CZ] |==|  0.83708
USER: genes 27 Torsion [N]-CA--CB-[CG] |==|  0.77235
USER: genes 28 Torsion [CA]-CB--CG-[CD] |==|  0.11990
USER: genes 29 Torsion [CB]-CG--CD-[NE] |==|  0.45488
USER: genes 30 Torsion [CG]-CD--NE-[CZ] |==|  0.75625
ROOT
ATOM      1  N   CYS A  91      90.107 101.410  84.877  1.00  0.00 LIG 0.62  N 
ATOM      2  CA  CYS A  91      90.769 102.529  84.264  1.00  0.00 LIG 0.38  C 
ATOM      3  C   CYS A  91      90.208 102.718  82.886  1.00  0.00 LIG 0.25  C 
ATOM      4 O    CYS A  91      90.626 102.063  81.932  1.00  0.00 LIG-0.29  OA
ENDROOT
BRANCH 2 5
ATOM      5  CB  CYS A  91      92.286 102.312  84.119  1.00  0.00 LIG 0.10  C 
BRANCH 5 6
ATOM      6 SG   CYS A  91      92.977 101.224  85.399  1.00  0.00 LIG-0.13  SA
BRANCH 6 7
ATOM      7  CX  LIG A  91      93.808  99.903  84.424  1.00  0.00 LIG 0.13  C 
ATOM      8  CX  LIG A  91      94.589  98.894  85.230  1.00  0.00 LIG 0.28  C 
ATOM      9 OX   LIG A  91      95.506  98.295  84.419  1.00  0.00 LIG-0.31  OA
ATOM     10 OX   LIG A  91      94.405  98.546  86.384  1.00  0.00 LIG-0.26  OA
ATOM     11  CX  LIG A  91      95.876  99.217  83.395  1.00  0.00 LIG 0.19  C 
ATOM     12  CX  LIG A  91      96.002  98.510  82.074  1.00  0.00 LIG 0.01  C 
ATOM     13  CX  LIG A  91      94.916 100.441  83.458  1.00  0.00 LIG 0.14  C 
ATOM     14  CX  LIG A  91      97.153  98.270  81.412  1.00  0.00 LIG-0.08  C 
ATOM     15  CX  LIG A  91      98.540  98.544  81.976  1.00  0.00 LIG 0.07  C 
ATOM     16  CX  LIG A  91      97.124  97.632  80.046  1.00  0.00 LIG 0.04  C 
ATOM     17  CX  LIG A  91      99.067  99.991  81.779  1.00  0.00 LIG 0.17  C 
ATOM     18  CX  LIG A  91      99.177 100.906  83.055  1.00  0.00 LIG 0.17  C 
ATOM     19  CX  LIG A  91      98.387 102.299  83.071  1.00  0.00 LIG 0.02  C 
ATOM     20  CX  LIG A  91      96.805 102.198  82.768  1.00  0.00 LIG 0.04  C 
ATOM     21  CX  LIG A  91      99.067 103.230  81.990  1.00  0.00 LIG 0.14  C 
ATOM     22  CX  LIG A  91      98.708 102.958  84.448  1.00  0.00 LIG 0.02  C 
ATOM     23  CX  LIG A  91      95.775 101.720  83.904  1.00  0.00 LIG 0.18  C 
ATOM     24  CX  LIG A  91      96.289 103.454  81.904  1.00  0.00 LIG 0.02  C 
ATOM     25  CX  LIG A  91      94.782 103.754  81.862  1.00  0.00 LIG 0.01  C 
ATOM     26  CX  LIG A  91      97.036 104.772  82.184  1.00  0.00 LIG 0.12  C 
ATOM     27  CX  LIG A  91      98.557 104.677  82.073  1.00  0.00 LIG 0.07  C 
ATOM     28  CX  LIG A  91      92.709  99.102  83.682  1.00  0.00 LIG 0.04  C 
BRANCH 17 29
ATOM     29 OX   LIG A  91     100.444  99.883  81.296  1.00  0.00 LIG-0.31  OA
BRANCH 29 30
ATOM     30  CX  LIG A  91     100.712  99.006  80.295  1.00  0.00 LIG 0.26  C 
ATOM     31 OX   LIG A  91     100.029  98.857  79.294  1.00  0.00 LIG-0.27  OA
BRANCH 30 32
ATOM     32  CX  LIG A  91     102.004  98.282  80.598  1.00  0.00 LIG 0.11  C 
BRANCH 32 33
ATOM     33  CX  LIG A  91     101.788  96.874  81.146  1.00  0.00 LIG 0.01  C 
ATOM     34  CX  LIG A  91     101.762  96.836  82.667  1.00  0.00 LIG 0.01  C 
ENDBRANCH 32 33
ENDBRANCH 30 32
ENDBRANCH 29 30
ENDBRANCH 17 29
BRANCH 18 35
ATOM     35 OX   LIG A  91      98.900 100.179  84.276  1.00  0.00 LIG-0.31  OA
BRANCH 35 36
ATOM     36  CX  LIG A  91      99.879  99.358  84.752  1.00  0.00 LIG 0.26  C 
ATOM     37  CX  LIG A  91      99.268  98.113  85.320  1.00  0.00 LIG 0.13  C 
ATOM     38 OX   LIG A  91     101.077  99.590  84.730  1.00  0.00 LIG-0.27  OA
ENDBRANCH 35 36
ENDBRANCH 18 35
BRANCH 23 39
ATOM     39 OX   LIG A  91      96.400 101.386  85.161  1.00  0.00 LIG-0.31  OA
BRANCH 39 40
ATOM     40  CX  LIG A  91      96.233 102.252  86.206  1.00  0.00 LIG 0.26  C 
ATOM     41  CX  LIG A  91      96.100 101.485  87.487  1.00  0.00 LIG 0.13  C 
ATOM     42 OX   LIG A  91      96.188 103.469  86.128  1.00  0.00 LIG-0.27  OA
ENDBRANCH 39 40
ENDBRANCH 23 39
BRANCH 26 43
ATOM     43 OX   LIG A  91      96.664 105.240  83.474  1.00  0.00 LIG-0.40  OA
ATOM     44 H    LIG A  91      96.606 104.490  84.086  1.00  0.00 LIG 0.21  HD
ENDBRANCH 26 43
BRANCH 21 45
ATOM     45 OX   LIG A  91      98.805 102.748  80.655  1.00  0.00 LIG-0.32  OA
BRANCH 45 46
ATOM     46  CX  LIG A  91      99.869 102.581  79.824  1.00  0.00 LIG 0.26  C 
ATOM     47  CX  LIG A  91      99.473 101.789  78.615  1.00  0.00 LIG 0.13  C 
ATOM     48 OX   LIG A  91     100.983 103.049  80.004  1.00  0.00 LIG-0.27  OA
ENDBRANCH 45 46
ENDBRANCH 21 45
BRANCH 13 49
ATOM     49 OX   LIG A  91      94.317 100.712  82.178  1.00  0.00 LIG-0.38  OA
ATOM     50 H    LIG A  91      94.084  99.874  81.747  1.00  0.00 LIG 0.21  HD
ENDBRANCH 13 49
ENDBRANCH 6 7
ENDBRANCH 5 6
ENDBRANCH 2 5
ATOM      1  N   ARG A  83      83.253 109.046  90.414  1.00 96.62 REC       N
ATOM      2  CA  ARG A  83      83.834 108.084  91.301  1.00 96.62 REC       C
ATOM      3  CB  ARG A  83      83.558 108.418  92.776  1.00 96.62 REC       C
ATOM      4  CG  ARG A  83      84.372 109.613  93.282  1.00 96.62 REC       C
ATOM      5  CD  ARG A  83      85.527 110.028  92.368  1.00 96.62 REC       C
ATOM      6  NE  ARG A  83      85.368 111.486  92.093  1.00 96.62 REC       N
ATOM      7  HE  ARG A  83      84.434 111.877  91.970  1.00  0.00 REC       H
ATOM      8  CZ  ARG A  83      86.459 112.301  92.005  1.00 96.62 REC       C
ATOM      9  NH1 ARG A  83      87.713 111.794  92.188  1.00 96.62 REC       N
ATOM     10 1HH1 ARG A  83      87.834 110.802  92.392  1.00  0.00 REC       H
ATOM     11 2HH1 ARG A  83      88.528 112.404  92.122  1.00  0.00 REC       H
ATOM     12  NH2 ARG A  83      86.297 113.629  91.733  1.00 96.62 REC       N
ATOM     13 1HH2 ARG A  83      85.360 114.008  91.596  1.00  0.00 REC       H
ATOM     14 2HH2 ARG A  83      87.112 114.238  91.667  1.00  0.00 REC       H
ATOM     15  N   ARG A  86      84.452 105.426  87.764  1.00122.64 REC       N
ATOM     16  CA  ARG A  86      85.847 105.107  87.799  1.00122.64 REC       C
ATOM     17  CB  ARG A  86      86.739 106.183  88.448  1.00122.64 REC       C
ATOM     18  CG  ARG A  86      86.397 106.566  89.887  1.00122.64 REC       C
ATOM     19  CD  ARG A  86      87.394 105.969  90.882  1.00122.64 REC       C
ATOM     20  NE  ARG A  86      86.631 105.428  92.038  1.00122.64 REC       N
ATOM     21  HE  ARG A  86      85.629 105.600  92.122  1.00  0.00 REC       H
ATOM     22  CZ  ARG A  86      87.289 104.698  92.985  1.00122.64 REC       C
ATOM     23  NH1 ARG A  86      88.630 104.480  92.867  1.00122.64 REC       N
ATOM     24 1HH1 ARG A  86      89.142 104.864  92.072  1.00  0.00 REC       H
ATOM     25 2HH1 ARG A  86      89.122 103.934  93.574  1.00  0.00 REC       H
ATOM     26  NH2 ARG A  86      86.605 104.185  94.049  1.00122.64 REC       N
ATOM     27 1HH2 ARG A  86      85.603 104.348  94.138  1.00  0.00 REC       H
ATOM     28 2HH2 ARG A  86      87.096 103.640  94.756  1.00  0.00 REC       H
ATOM     29  N   ARG A  94      92.572 103.846  79.741  1.00106.25 REC       N
ATOM     30  CA  ARG A  94      93.222 102.901  78.884  1.00106.25 REC       C
ATOM     31  CB  ARG A  94      93.777 101.680  79.639  1.00106.25 REC       C
ATOM     32  CG  ARG A  94      94.251 100.550  78.724  1.00106.25 REC       C
ATOM     33  CD  ARG A  94      95.748 100.259  78.838  1.00106.25 REC       C
ATOM     34  NE  ARG A  94      96.423 101.547  79.160  1.00106.25 REC       N
ATOM     35  HE  ARG A  94      96.978 101.633  80.012  1.00  0.00 REC       H
ATOM     36  CZ  ARG A  94      96.300 102.611  78.314  1.00106.25 REC       C
ATOM     37  NH1 ARG A  94      95.545 102.499  77.184  1.00106.25 REC       N
ATOM     38 1HH1 ARG A  94      95.076 101.619  76.968  1.00  0.00 REC       H
ATOM     39 2HH1 ARG A  94      95.454 103.294  76.551  1.00  0.00 REC       H
ATOM     40  NH2 ARG A  94      96.927 103.789  78.603  1.00106.25 REC       N
ATOM     41 1HH2 ARG A  94      97.491 103.874  79.449  1.00  0.00 REC       H
ATOM     42 2HH2 ARG A  94      96.835 104.584  77.971  1.00  0.00 REC       H
ATOM     43  N   ARG A  95      90.988 102.141  78.307  1.00 63.53 REC       N
ATOM     44  CA  ARG A  95      90.003 101.621  77.405  1.00 63.53 REC       C
ATOM     45  CB  ARG A  95      88.650 101.313  78.069  1.00 63.53 REC       C
ATOM     46  CG  ARG A  95      88.595  99.964  78.786  1.00 63.53 REC       C
ATOM     47  CD  ARG A  95      89.835  99.643  79.618  1.00 63.53 REC       C
ATOM     48  NE  ARG A  95      89.469  98.532  80.540  1.00 63.53 REC       N
ATOM     49  HE  ARG A  95      89.630  97.564  80.264  1.00  0.00 REC       H
ATOM     50  CZ  ARG A  95      88.918  98.815  81.757  1.00 63.53 REC       C
ATOM     51  NH1 ARG A  95      88.668 100.112  82.104  1.00 63.53 REC       N
ATOM     52 1HH1 ARG A  95      88.898 100.868  81.459  1.00  0.00 REC       H
ATOM     53 2HH1 ARG A  95      88.256 100.323  83.013  1.00  0.00 REC       H
ATOM     54  NH2 ARG A  95      88.610  97.803  82.619  1.00 63.53 REC       N
ATOM     55 1HH2 ARG A  95      88.797  96.835  82.360  1.00  0.00 REC       H
ATOM     56 2HH2 ARG A  95      88.198  98.015  83.528  1.00  0.00 REC       H
TORSDOF 16
ENDMDL
MODEL 8
USER: ADFR SOLUTION from run 11
USER: SCORE 10.130004 LL:  -4.754 LR:  -4.796 RR:  -2.321 FEB:  -0.023
USER: RMSD -1
USER: STATUS searching
USER: GENES 31
USER: genes 0 Torsion [N]-CA--CB-[SG] |==|  0.65580
USER: genes 1 Torsion [CA]-CB--SG-[CX] |==|  0.17935
USER: genes 2 Torsion [CB]-SG--CX-[CX] |==|  0.45840
USER: genes 3 Torsion [CX]-CX--OX-[CX] |==|  0.29900
USER: genes 4 Torsion [CX]-OX--CX-[CX] |==|  0.85393
USER: genes 5 Torsion [OX]-CX--CX-[CX] |==|  0.35049
USER: genes 6 Torsion [CX]-CX--CX-[CX] |==|  0.73989
USER: genes 7 Torsion [CX]-CX--OX-[CX] |==|  0.25230
USER: genes 8 Torsion [CX]-OX--CX-[CX] |==|  0.06148
USER: genes 9 Torsion [CX]-CX--OX-[CX] |==|  0.64324
USER: genes 10 Torsion [CX]-OX--CX-[CX] |==|  0.40408
USER: genes 11 Torsion [CX]-CX--OX-[H] |==|  0.11741
USER: genes 12 Torsion [CX]-CX--OX-[CX] |==|  0.53523
USER: genes 13 Torsion [CX]-OX--CX-[CX] |==|  0.07273
USER: genes 14 Torsion [CX]-CX--OX-[H] |==|  0.55167
USER: genes 15 Torsion [N]-CA--CB-[CG] |==|  0.82631
USER: genes 16 Torsion [CA]-CB--CG-[CD] |==|  0.90974
USER: genes 17 Torsion [CB]-CG--CD-[NE] |==|  0.36155
USER: genes 18 Torsion [CG]-CD--NE-[CZ] |==|  0.34993
USER: genes 19 Torsion [N]-CA--CB-[CG] |==|  0.53147
USER: genes 20 Torsion [CA]-CB--CG-[CD] |==|  0.58140
USER: genes 21 Torsion [CB]-CG--CD-[NE] |==|  0.41233
USER: genes 22 Torsion [CG]-CD--NE-[CZ] |==|  0.62607
USER: genes 23 Torsion [N]-CA--CB-[CG] |==|  0.03107
USER: genes 24 Torsion [CA]-CB--CG-[CD] |==|  0.53279
USER: genes 25 Torsion [CB]-CG--CD-[NE] |==|  0.76347
USER: genes 26 Torsion [CG]-CD--NE-[CZ] |==|  0.42286
USER: genes 27 Torsion [N]-CA--CB-[CG] |==|  0.65268
USER: genes 28 Torsion [CA]-CB--CG-[CD] |==|  0.31802
USER: genes 29 Torsion [CB]-CG--CD-[NE] |==|  0.34361
USER: genes 30 Torsion [CG]-CD--NE-[CZ] |==|  0.62402
ROOT
ATOM      1  N   CYS A  91      90.107 101.410  84.877  1.00  0.00 LIG 0.62  N 
ATOM      2  CA  CYS A  91      90.769 102.529  84.264  1.00  0.00 LIG 0.38  C 
ATOM      3  C   CYS A  91      90.208 102.718  82.886  1.00  0.00 LIG 0.25  C 
ATOM      4 O    CYS A  91      90.626 102.063  81.932  1.00  0.00 LIG-0.29  OA
ENDROOT
BRANCH 2 5
ATOM      5  CB  CYS A  91      92.286 102.312  84.119  1.00  0.00 LIG 0.10  C 
BRANCH 5 6
ATOM      6 SG   CYS A  91      93.272 103.618  84.907  1.00  0.00 LIG-0.13  SA
BRANCH 6 7
ATOM      7  CX  LIG A  91      92.865 103.431  86.693  1.00  0.00 LIG 0.13  C 
ATOM      8  CX  LIG A  91      93.791 104.143  87.649  1.00  0.00 LIG 0.28  C 
ATOM      9 OX   LIG A  91      93.688 103.564  88.878  1.00  0.00 LIG-0.31  OA
ATOM     10 OX   LIG A  91      94.459 105.143  87.447  1.00  0.00 LIG-0.26  OA
ATOM     11  CX  LIG A  91      93.339 102.191  88.704  1.00  0.00 LIG 0.19  C 
ATOM     12  CX  LIG A  91      92.325 101.775  89.732  1.00  0.00 LIG 0.01  C 
ATOM     13  CX  LIG A  91      92.973 101.958  87.209  1.00  0.00 LIG 0.14  C 
ATOM     14  CX  LIG A  91      92.548 100.943  90.771  1.00  0.00 LIG-0.08  C 
ATOM     15  CX  LIG A  91      93.918 100.408  91.163  1.00  0.00 LIG 0.07  C 
ATOM     16  CX  LIG A  91      91.411 100.535  91.675  1.00  0.00 LIG 0.04  C 
ATOM     17  CX  LIG A  91      94.372  99.126  90.414  1.00  0.00 LIG 0.17  C 
ATOM     18  CX  LIG A  91      95.545  99.267  89.373  1.00  0.00 LIG 0.17  C 
ATOM     19  CX  LIG A  91      95.285  98.813  87.860  1.00  0.00 LIG 0.02  C 
ATOM     20  CX  LIG A  91      94.010  99.497  87.144  1.00  0.00 LIG 0.04  C 
ATOM     21  CX  LIG A  91      95.098  97.245  87.871  1.00  0.00 LIG 0.14  C 
ATOM     22  CX  LIG A  91      96.625  99.067  87.100  1.00  0.00 LIG 0.02  C 
ATOM     23  CX  LIG A  91      94.088 100.996  86.573  1.00  0.00 LIG 0.18  C 
ATOM     24  CX  LIG A  91      93.258  98.462  86.167  1.00  0.00 LIG 0.02  C 
ATOM     25  CX  LIG A  91      92.295  99.016  85.104  1.00  0.00 LIG 0.01  C 
ATOM     26  CX  LIG A  91      94.185  97.435  85.490  1.00  0.00 LIG 0.12  C 
ATOM     27  CX  LIG A  91      95.081  96.656  86.452  1.00  0.00 LIG 0.07  C 
ATOM     28  CX  LIG A  91      91.460 104.040  86.923  1.00  0.00 LIG 0.04  C 
BRANCH 17 29
ATOM     29 OX   LIG A  91      94.899  98.205  91.423  1.00  0.00 LIG-0.31  OA
BRANCH 29 30
ATOM     30  CX  LIG A  91      94.164  97.109  91.744  1.00  0.00 LIG 0.26  C 
ATOM     31 OX   LIG A  91      94.587  95.964  91.767  1.00  0.00 LIG-0.27  OA
BRANCH 30 32
ATOM     32  CX  LIG A  91      92.760  97.539  92.106  1.00  0.00 LIG 0.11  C 
BRANCH 32 33
ATOM     33  CX  LIG A  91      91.684  96.812  91.304  1.00  0.00 LIG 0.01  C 
ATOM     34  CX  LIG A  91      91.262  97.581  90.060  1.00  0.00 LIG 0.01  C 
ENDBRANCH 32 33
ENDBRANCH 30 32
ENDBRANCH 29 30
ENDBRANCH 17 29
BRANCH 18 35
ATOM     35 OX   LIG A  91      96.134 100.589  89.389  1.00  0.00 LIG-0.31  OA
BRANCH 35 36
ATOM     36  CX  LIG A  91      97.191 100.795  90.224  1.00  0.00 LIG 0.26  C 
ATOM     37  CX  LIG A  91      97.846  99.487  90.549  1.00  0.00 LIG 0.13  C 
ATOM     38 OX   LIG A  91      97.559 101.875  90.656  1.00  0.00 LIG-0.27  OA
ENDBRANCH 35 36
ENDBRANCH 18 35
BRANCH 23 39
ATOM     39 OX   LIG A  91      95.364 101.639  86.782  1.00  0.00 LIG-0.31  OA
BRANCH 39 40
ATOM     40  CX  LIG A  91      96.183 101.797  85.699  1.00  0.00 LIG 0.26  C 
ATOM     41  CX  LIG A  91      96.947 103.080  85.822  1.00  0.00 LIG 0.13  C 
ATOM     42 OX   LIG A  91      96.286 101.025  84.759  1.00  0.00 LIG-0.27  OA
ENDBRANCH 39 40
ENDBRANCH 23 39
BRANCH 26 43
ATOM     43 OX   LIG A  91      94.973  98.106  84.515  1.00  0.00 LIG-0.40  OA
ATOM     44 H    LIG A  91      95.281  98.953  84.875  1.00  0.00 LIG 0.21  HD
ENDBRANCH 26 43
BRANCH 21 45
ATOM     45 OX   LIG A  91      93.859  96.877  88.515  1.00  0.00 LIG-0.32  OA
BRANCH 45 46
ATOM     46  CX  LIG A  91      93.680  95.567  88.837  1.00  0.00 LIG 0.26  C 
ATOM     47  CX  LIG A  91      95.001  94.890  89.038  1.00  0.00 LIG 0.13  C 
ATOM     48 OX   LIG A  91      92.597  95.022  88.992  1.00  0.00 LIG-0.27  OA
ENDBRANCH 45 46
ENDBRANCH 21 45
BRANCH 13 49
ATOM     49 OX   LIG A  91      91.687 101.327  87.070  1.00  0.00 LIG-0.38  OA
ATOM     50 H    LIG A  91      91.651 100.540  87.637  1.00  0.00 LIG 0.21  HD
ENDBRANCH 13 49
ENDBRANCH 6 7
ENDBRANCH 5 6
ENDBRANCH 2 5
ATOM      1  N   ARG A  83      83.253 109.046  90.414  1.00 96.62 REC       N
ATOM      2  CA  ARG A  83      83.834 108.084  91.301  1.00 96.62 REC       C
ATOM      3  CB  ARG A  83      83.558 108.418  92.776  1.00 96.62 REC       C
ATOM      4  CG  ARG A  83      84.170 109.752  93.213  1.00 96.62 REC       C
ATOM      5  CD  ARG A  83      85.482 110.111  92.510  1.00 96.62 REC       C
ATOM      6  NE  ARG A  83      85.343 111.509  92.007  1.00 96.62 REC       N
ATOM      7  HE  ARG A  83      84.550 111.755  91.414  1.00  0.00 REC       H
ATOM      8  CZ  ARG A  83      86.265 112.461  92.333  1.00 96.62 REC       C
ATOM      9  NH1 ARG A  83      87.319 112.148  93.142  1.00 96.62 REC       N
ATOM     10 1HH1 ARG A  83      87.417 111.200  93.504  1.00  0.00 REC       H
ATOM     11 2HH1 ARG A  83      88.008 112.860  93.385  1.00  0.00 REC       H
ATOM     12  NH2 ARG A  83      86.135 113.729  91.848  1.00 96.62 REC       N
ATOM     13 1HH2 ARG A  83      85.347 113.963  91.243  1.00  0.00 REC       H
ATOM     14 2HH2 ARG A  83      86.824 114.441  92.091  1.00  0.00 REC       H
ATOM     15  N   ARG A  86      84.452 105.426  87.764  1.00122.64 REC       N
ATOM     16  CA  ARG A  86      85.847 105.107  87.799  1.00122.64 REC       C
ATOM     17  CB  ARG A  86      86.739 106.183  88.448  1.00122.64 REC       C
ATOM     18  CG  ARG A  86      88.246 106.009  88.268  1.00122.64 REC       C
ATOM     19  CD  ARG A  86      89.026 106.605  89.441  1.00122.64 REC       C
ATOM     20  NE  ARG A  86      90.265 105.804  89.631  1.00122.64 REC       N
ATOM     21  HE  ARG A  86      90.839 105.542  88.830  1.00  0.00 REC       H
ATOM     22  CZ  ARG A  86      90.625 105.425  90.893  1.00122.64 REC       C
ATOM     23  NH1 ARG A  86      89.846 105.776  91.956  1.00122.64 REC       N
ATOM     24 1HH1 ARG A  86      88.995 106.319  91.810  1.00  0.00 REC       H
ATOM     25 2HH1 ARG A  86      90.115 105.493  92.899  1.00  0.00 REC       H
ATOM     26  NH2 ARG A  86      91.762 104.699  91.089  1.00122.64 REC       N
ATOM     27 1HH2 ARG A  86      92.344 104.436  90.293  1.00  0.00 REC       H
ATOM     28 2HH2 ARG A  86      92.031 104.415  92.031  1.00  0.00 REC       H
ATOM     29  N   ARG A  94      92.572 103.846  79.741  1.00106.25 REC       N
ATOM     30  CA  ARG A  94      93.222 102.901  78.884  1.00106.25 REC       C
ATOM     31  CB  ARG A  94      93.777 101.680  79.639  1.00106.25 REC       C
ATOM     32  CG  ARG A  94      93.299 101.579  81.088  1.00106.25 REC       C
ATOM     33  CD  ARG A  94      94.064 100.544  81.913  1.00106.25 REC       C
ATOM     34  NE  ARG A  94      93.415  99.224  81.676  1.00106.25 REC       N
ATOM     35  HE  ARG A  94      92.425  99.179  81.433  1.00  0.00 REC       H
ATOM     36  CZ  ARG A  94      94.145  98.076  81.784  1.00106.25 REC       C
ATOM     37  NH1 ARG A  94      95.465  98.139  82.124  1.00106.25 REC       N
ATOM     38 1HH1 ARG A  94      95.907  99.042  82.294  1.00  0.00 REC       H
ATOM     39 2HH1 ARG A  94      96.011  97.281  82.204  1.00  0.00 REC       H
ATOM     40  NH2 ARG A  94      93.555  96.867  81.557  1.00106.25 REC       N
ATOM     41 1HH2 ARG A  94      92.568  96.820  81.303  1.00  0.00 REC       H
ATOM     42 2HH2 ARG A  94      94.101  96.009  81.637  1.00  0.00 REC       H
ATOM     43  N   ARG A  95      90.988 102.141  78.307  1.00 63.53 REC       N
ATOM     44  CA  ARG A  95      90.003 101.621  77.405  1.00 63.53 REC       C
ATOM     45  CB  ARG A  95      88.650 101.313  78.069  1.00 63.53 REC       C
ATOM     46  CG  ARG A  95      88.161  99.879  77.863  1.00 63.53 REC       C
ATOM     47  CD  ARG A  95      88.086  99.050  79.144  1.00 63.53 REC       C
ATOM     48  NE  ARG A  95      86.688  98.550  79.262  1.00 63.53 REC       N
ATOM     49  HE  ARG A  95      86.213  98.163  78.448  1.00  0.00 REC       H
ATOM     50  CZ  ARG A  95      86.045  98.614  80.465  1.00 63.53 REC       C
ATOM     51  NH1 ARG A  95      86.672  99.172  81.542  1.00 63.53 REC       N
ATOM     52 1HH1 ARG A  95      87.621  99.535  81.450  1.00  0.00 REC       H
ATOM     53 2HH1 ARG A  95      86.192  99.220  82.440  1.00  0.00 REC       H
ATOM     54  NH2 ARG A  95      84.776  98.128  80.587  1.00 63.53 REC       N
ATOM     55 1HH2 ARG A  95      84.307  97.712  79.783  1.00  0.00 REC       H
ATOM     56 2HH2 ARG A  95      84.295  98.176  81.486  1.00  0.00 REC       H
TORSDOF 16
ENDMDL
MODEL 9
USER: ADFR SOLUTION from run 82
USER: SCORE 9.943776 LL:  -4.839 LR:  -4.503 RR:  -2.406 FEB:   0.270
USER: RMSD -1
USER: STATUS searching
USER: GENES 31
USER: genes 0 Torsion [N]-CA--CB-[SG] |==|  0.13953
USER: genes 1 Torsion [CA]-CB--SG-[CX] |==|  0.56920
USER: genes 2 Torsion [CB]-SG--CX-[CX] |==|  0.49267
USER: genes 3 Torsion [CX]-CX--OX-[CX] |==|  0.35220
USER: genes 4 Torsion [CX]-OX--CX-[CX] |==|  0.37929
USER: genes 5 Torsion [OX]-CX--CX-[CX] |==|  0.93620
USER: genes 6 Torsion [CX]-CX--CX-[CX] |==|  0.69012
USER: genes 7 Torsion [CX]-CX--OX-[CX] |==|  0.20789
USER: genes 8 Torsion [CX]-OX--CX-[CX] |==|  0.60308
USER: genes 9 Torsion [CX]-CX--OX-[CX] |==|  0.64497
USER: genes 10 Torsion [CX]-OX--CX-[CX] |==|  0.40115
USER: genes 11 Torsion [CX]-CX--OX-[H] |==|  0.11358
USER: genes 12 Torsion [CX]-CX--OX-[CX] |==|  0.47695
USER: genes 13 Torsion [CX]-OX--CX-[CX] |==|  0.63117
USER: genes 14 Torsion [CX]-CX--OX-[H] |==|  0.55549
USER: genes 15 Torsion [N]-CA--CB-[CG] |==|  0.81777
USER: genes 16 Torsion [CA]-CB--CG-[CD] |==|  0.92387
USER: genes 17 Torsion [CB]-CG--CD-[NE] |==|  0.35001
USER: genes 18 Torsion [CG]-CD--NE-[CZ] |==|  0.34296
USER: genes 19 Torsion [N]-CA--CB-[CG] |==|  0.15929
USER: genes 20 Torsion [CA]-CB--CG-[CD] |==|  0.29271
USER: genes 21 Torsion [CB]-CG--CD-[NE] |==|  0.63747
USER: genes 22 Torsion [CG]-CD--NE-[CZ] |==|  0.51928
USER: genes 23 Torsion [N]-CA--CB-[CG] |==|  0.21491
USER: genes 24 Torsion [CA]-CB--CG-[CD] |==|  0.40290
USER: genes 25 Torsion [CB]-CG--CD-[NE] |==|  0.06153
USER: genes 26 Torsion [CG]-CD--NE-[CZ] |==|  0.56704
USER: genes 27 Torsion [N]-CA--CB-[CG] |==|  0.76598
USER: genes 28 Torsion [CA]-CB--CG-[CD] |==|  0.12966
USER: genes 29 Torsion [CB]-CG--CD-[NE] |==|  0.45235
USER: genes 30 Torsion [CG]-CD--NE-[CZ] |==|  0.73279
ROOT
ATOM      1  N   CYS A  91      90.107 101.410  84.877  1.00  0.00 LIG 0.62  N 
ATOM      2  CA  CYS A  91      90.769 102.529  84.264  1.00  0.00 LIG 0.38  C 
ATOM      3  C   CYS A  91      90.208 102.718  82.886  1.00  0.00 LIG 0.25  C 
ATOM      4 O    CYS A  91      90.626 102.063  81.932  1.00  0.00 LIG-0.29  OA
ENDROOT
BRANCH 2 5
ATOM      5  CB  CYS A  91      92.286 102.312  84.119  1.00  0.00 LIG 0.10  C 
BRANCH 5 6
ATOM      6 SG   CYS A  91      92.709 100.724  83.346  1.00  0.00 LIG-0.13  SA
BRANCH 6 7
ATOM      7  CX  LIG A  91      94.406 100.388  83.977  1.00  0.00 LIG 0.13  C 
ATOM      8  CX  LIG A  91      95.012  99.075  83.545  1.00  0.00 LIG 0.28  C 
ATOM      9 OX   LIG A  91      96.003  98.737  84.418  1.00  0.00 LIG-0.31  OA
ATOM     10 OX   LIG A  91      94.778  98.432  82.536  1.00  0.00 LIG-0.26  OA
ATOM     11  CX  LIG A  91      95.689  99.289  85.696  1.00  0.00 LIG 0.19  C 
ATOM     12  CX  LIG A  91      96.926  99.839  86.347  1.00  0.00 LIG 0.01  C 
ATOM     13  CX  LIG A  91      94.480 100.257  85.535  1.00  0.00 LIG 0.14  C 
ATOM     14  CX  LIG A  91      97.555  99.314  87.419  1.00  0.00 LIG-0.08  C 
ATOM     15  CX  LIG A  91      97.197  97.979  88.055  1.00  0.00 LIG 0.07  C 
ATOM     16  CX  LIG A  91      98.738 100.025  88.029  1.00  0.00 LIG 0.04  C 
ATOM     17  CX  LIG A  91      96.059  98.026  89.109  1.00  0.00 LIG 0.17  C 
ATOM     18  CX  LIG A  91      94.680  97.371  88.724  1.00  0.00 LIG 0.17  C 
ATOM     19  CX  LIG A  91      93.360  98.276  88.772  1.00  0.00 LIG 0.02  C 
ATOM     20  CX  LIG A  91      93.428  99.640  87.911  1.00  0.00 LIG 0.04  C 
ATOM     21  CX  LIG A  91      93.096  98.629  90.289  1.00  0.00 LIG 0.14  C 
ATOM     22  CX  LIG A  91      92.184  97.342  88.351  1.00  0.00 LIG 0.02  C 
ATOM     23  CX  LIG A  91      93.232  99.621  86.317  1.00  0.00 LIG 0.18  C 
ATOM     24  CX  LIG A  91      92.656 100.843  88.652  1.00  0.00 LIG 0.02  C 
ATOM     25  CX  LIG A  91      92.257 102.081  87.833  1.00  0.00 LIG 0.01  C 
ATOM     26  CX  LIG A  91      91.437 100.402  89.485  1.00  0.00 LIG 0.12  C 
ATOM     27  CX  LIG A  91      91.725  99.293  90.495  1.00  0.00 LIG 0.07  C 
ATOM     28  CX  LIG A  91      95.340 101.494  83.428  1.00  0.00 LIG 0.04  C 
BRANCH 17 29
ATOM     29 OX   LIG A  91      96.512  97.249  90.265  1.00  0.00 LIG-0.31  OA
BRANCH 29 30
ATOM     30  CX  LIG A  91      96.480  97.835  91.489  1.00  0.00 LIG 0.26  C 
ATOM     31 OX   LIG A  91      96.810  98.987  91.724  1.00  0.00 LIG-0.27  OA
BRANCH 30 32
ATOM     32  CX  LIG A  91      95.933  96.850  92.498  1.00  0.00 LIG 0.11  C 
BRANCH 32 33
ATOM     33  CX  LIG A  91      95.077  95.756  91.865  1.00  0.00 LIG 0.01  C 
ATOM     34  CX  LIG A  91      93.607  95.874  92.239  1.00  0.00 LIG 0.01  C 
ENDBRANCH 32 33
ENDBRANCH 30 32
ENDBRANCH 29 30
ENDBRANCH 17 29
BRANCH 18 35
ATOM     35 OX   LIG A  91      94.742  96.672  87.457  1.00  0.00 LIG-0.31  OA
BRANCH 35 36
ATOM     36  CX  LIG A  91      95.384  95.470  87.435  1.00  0.00 LIG 0.26  C 
ATOM     37  CX  LIG A  91      96.135  95.317  86.148  1.00  0.00 LIG 0.13  C 
ATOM     38 OX   LIG A  91      95.356  94.631  88.322  1.00  0.00 LIG-0.27  OA
ENDBRANCH 35 36
ENDBRANCH 18 35
BRANCH 23 39
ATOM     39 OX   LIG A  91      93.019  98.304  85.766  1.00  0.00 LIG-0.31  OA
BRANCH 39 40
ATOM     40  CX  LIG A  91      91.761  97.988  85.336  1.00  0.00 LIG 0.26  C 
ATOM     41  CX  LIG A  91      91.842  97.111  84.124  1.00  0.00 LIG 0.13  C 
ATOM     42 OX   LIG A  91      90.715  98.361  85.843  1.00  0.00 LIG-0.27  OA
ENDBRANCH 39 40
ENDBRANCH 23 39
BRANCH 26 43
ATOM     43 OX   LIG A  91      90.400 100.004  88.598  1.00  0.00 LIG-0.40  OA
ATOM     44 H    LIG A  91      90.778  99.496  87.864  1.00  0.00 LIG 0.21  HD
ENDBRANCH 26 43
BRANCH 21 45
ATOM     45 OX   LIG A  91      94.102  99.533  90.792  1.00  0.00 LIG-0.32  OA
BRANCH 45 46
ATOM     46  CX  LIG A  91      93.912 100.063  92.030  1.00  0.00 LIG 0.26  C 
ATOM     47  CX  LIG A  91      94.154 101.542  92.012  1.00  0.00 LIG 0.13  C 
ATOM     48 OX   LIG A  91      93.548  99.439  93.016  1.00  0.00 LIG-0.27  OA
ENDBRANCH 45 46
ENDBRANCH 21 45
BRANCH 13 49
ATOM     49 OX   LIG A  91      94.760 101.554  86.092  1.00  0.00 LIG-0.38  OA
ATOM     50 H    LIG A  91      95.116 101.450  86.989  1.00  0.00 LIG 0.21  HD
ENDBRANCH 13 49
ENDBRANCH 6 7
ENDBRANCH 5 6
ENDBRANCH 2 5
ATOM      1  N   ARG A  83      83.253 109.046  90.414  1.00 96.62 REC       N
ATOM      2  CA  ARG A  83      83.834 108.084  91.301  1.00 96.62 REC       C
ATOM      3  CB  ARG A  83      83.558 108.418  92.776  1.00 96.62 REC       C
ATOM      4  CG  ARG A  83      84.233 109.715  93.233  1.00 96.62 REC       C
ATOM      5  CD  ARG A  83      85.506 110.075  92.463  1.00 96.62 REC       C
ATOM      6  NE  ARG A  83      85.330 111.464  91.948  1.00 96.62 REC       N
ATOM      7  HE  ARG A  83      84.527 111.686  91.358  1.00  0.00 REC       H
ATOM      8  CZ  ARG A  83      86.231 112.441  92.258  1.00 96.62 REC       C
ATOM      9  NH1 ARG A  83      87.297 112.162  93.064  1.00 96.62 REC       N
ATOM     10 1HH1 ARG A  83      87.420 111.220  93.434  1.00  0.00 REC       H
ATOM     11 2HH1 ARG A  83      87.971 112.893  93.295  1.00  0.00 REC       H
ATOM     12  NH2 ARG A  83      86.066 113.701  91.762  1.00 96.62 REC       N
ATOM     13 1HH2 ARG A  83      85.269 113.910  91.161  1.00  0.00 REC       H
ATOM     14 2HH2 ARG A  83      86.739 114.432  91.994  1.00  0.00 REC       H
ATOM     15  N   ARG A  86      84.452 105.426  87.764  1.00122.64 REC       N
ATOM     16  CA  ARG A  86      85.847 105.107  87.799  1.00122.64 REC       C
ATOM     17  CB  ARG A  86      86.739 106.183  88.448  1.00122.64 REC       C
ATOM     18  CG  ARG A  86      86.393 106.571  89.885  1.00122.64 REC       C
ATOM     19  CD  ARG A  86      87.391 105.982  90.883  1.00122.64 REC       C
ATOM     20  NE  ARG A  86      86.625 105.313  91.969  1.00122.64 REC       N
ATOM     21  HE  ARG A  86      85.612 105.214  91.901  1.00  0.00 REC       H
ATOM     22  CZ  ARG A  86      87.295 104.833  93.057  1.00122.64 REC       C
ATOM     23  NH1 ARG A  86      88.649 104.978  93.141  1.00122.64 REC       N
ATOM     24 1HH1 ARG A  86      89.160 105.446  92.392  1.00  0.00 REC       H
ATOM     25 2HH1 ARG A  86      89.149 104.619  93.954  1.00  0.00 REC       H
ATOM     26  NH2 ARG A  86      86.611 104.209  94.058  1.00122.64 REC       N
ATOM     27 1HH2 ARG A  86      85.599 104.101  93.996  1.00  0.00 REC       H
ATOM     28 2HH2 ARG A  86      87.112 103.850  94.872  1.00  0.00 REC       H
ATOM     29  N   ARG A  94      92.572 103.846  79.741  1.00106.25 REC       N
ATOM     30  CA  ARG A  94      93.222 102.901  78.884  1.00106.25 REC       C
ATOM     31  CB  ARG A  94      93.777 101.680  79.639  1.00106.25 REC       C
ATOM     32  CG  ARG A  94      92.710 100.654  80.024  1.00106.25 REC       C
ATOM     33  CD  ARG A  94      93.205  99.209  79.968  1.00106.25 REC       C
ATOM     34  NE  ARG A  94      94.690  99.247  80.081  1.00106.25 REC       N
ATOM     35  HE  ARG A  94      95.148 100.041  80.530  1.00  0.00 REC       H
ATOM     36  CZ  ARG A  94      95.438  98.218  79.585  1.00106.25 REC       C
ATOM     37  NH1 ARG A  94      94.825  97.165  78.972  1.00106.25 REC       N
ATOM     38 1HH1 ARG A  94      93.809  97.144  78.888  1.00  0.00 REC       H
ATOM     39 2HH1 ARG A  94      95.384  96.396  78.601  1.00  0.00 REC       H
ATOM     40  NH2 ARG A  94      96.798  98.246  79.697  1.00106.25 REC       N
ATOM     41 1HH2 ARG A  94      97.256  99.034  80.155  1.00  0.00 REC       H
ATOM     42 2HH2 ARG A  94      97.357  97.477  79.327  1.00  0.00 REC       H
ATOM     43  N   ARG A  95      90.988 102.141  78.307  1.00 63.53 REC       N
ATOM     44  CA  ARG A  95      90.003 101.621  77.405  1.00 63.53 REC       C
ATOM     45  CB  ARG A  95      88.650 101.313  78.069  1.00 63.53 REC       C
ATOM     46  CG  ARG A  95      88.577  99.940  78.739  1.00 63.53 REC       C
ATOM     47  CD  ARG A  95      89.781  99.605  79.617  1.00 63.53 REC       C
ATOM     48  NE  ARG A  95      89.378  98.475  80.500  1.00 63.53 REC       N
ATOM     49  HE  ARG A  95      89.433  97.515  80.161  1.00  0.00 REC       H
ATOM     50  CZ  ARG A  95      88.934  98.730  81.766  1.00 63.53 REC       C
ATOM     51  NH1 ARG A  95      88.824 100.020  82.201  1.00 63.53 REC       N
ATOM     52 1HH1 ARG A  95      89.078 100.791  81.583  1.00  0.00 REC       H
ATOM     53 2HH1 ARG A  95      88.493 100.210  83.146  1.00  0.00 REC       H
ATOM     54  NH2 ARG A  95      88.594  97.698  82.591  1.00 63.53 REC       N
ATOM     55 1HH2 ARG A  95      88.676  96.734  82.267  1.00  0.00 REC       H
ATOM     56 2HH2 ARG A  95      88.263  97.888  83.537  1.00  0.00 REC       H
TORSDOF 16
ENDMDL
